                                  MODFLOW-2005     
      U.S. GEOLOGICAL SURVEY MODULAR FINITE-DIFFERENCE GROUND-WATER FLOW MODEL
                            VERSION 1.12.00 2/3/2017

 LIST FILE: BoxModel_flopy.list
                         UNIT    2

 OPENING BoxModel_flopy.dis
 FILE TYPE:DIS   UNIT   11   STATUS:OLD    
 FORMAT:FORMATTED              ACCESS:SEQUENTIAL          

 OPENING BoxModel_flopy.bas
 FILE TYPE:BAS6   UNIT   13   STATUS:OLD    
 FORMAT:FORMATTED              ACCESS:SEQUENTIAL          

 OPENING BoxModel_flopy.bcf
 FILE TYPE:BCF6   UNIT   15   STATUS:OLD    
 FORMAT:FORMATTED              ACCESS:SEQUENTIAL          

 OPENING BoxModel_flopy.oc
 FILE TYPE:OC   UNIT   14   STATUS:OLD    
 FORMAT:FORMATTED              ACCESS:SEQUENTIAL          

 OPENING BoxModel_flopy.pcg
 FILE TYPE:PCG   UNIT   27   STATUS:OLD    
 FORMAT:FORMATTED              ACCESS:SEQUENTIAL          

 OPENING BoxModel_flopy.cbc
 FILE TYPE:DATA(BINARY)   UNIT   53   STATUS:REPLACE
 FORMAT:UNFORMATTED            ACCESS:STREAM              

 OPENING BoxModel_flopy.hds
 FILE TYPE:DATA(BINARY)   UNIT   51   STATUS:REPLACE
 FORMAT:UNFORMATTED            ACCESS:STREAM              

 BAS -- BASIC PACKAGE, VERSION 7, 5/2/2005 INPUT READ FROM UNIT   13
 
 MODFLOW was compiled using mixed precision
 Precision of REAL variables:           6
 Precision of DOUBLE PRECISION variables:          15

 DISCRETIZATION INPUT DATA READ FROM UNIT   11
 # DIS package for MODFLOW-2005 generated by Flopy 3.9.5
    1 LAYERS        25 ROWS        25 COLUMNS
    1 STRESS PERIOD(S) IN SIMULATION
 MODEL TIME UNIT IS DAYS
 MODEL LENGTH UNIT IS METERS
  Confining bed flag for each layer:
   0

                     DELR =   100.000    

                     DELC =   100.000    

 TOP ELEVATION OF LAYER 1 =   10.0000    

   MODEL LAYER BOTTOM EL. =   0.00000     FOR LAYER   1


 STRESS PERIOD     LENGTH       TIME STEPS     MULTIPLIER FOR DELT    SS FLAG
 ----------------------------------------------------------------------------
        1         1.000000          1                    1.000         SS

 STEADY-STATE SIMULATION



 
 # BAS6 package for MODFLOW-2005 generated by Flopy 3.9.5                        
 THE FREE FORMAT OPTION HAS BEEN SELECTED



                     BOUNDARY ARRAY FOR LAYER   1
 READING ON UNIT   13 WITH FORMAT: (25I10)             

 AQUIFER HEAD WILL BE SET TO  -999.99     AT ALL NO-FLOW NODES (IBOUND=0).



                       INITIAL HEAD FOR LAYER   1
 READING ON UNIT   13 WITH FORMAT: (25E15.6)           
 # OC package for MODFLOW-2005 generated by Flopy 3.9.5

 OUTPUT CONTROL IS SPECIFIED ONLY AT TIME STEPS FOR WHICH OUTPUT IS DESIRED
 COMPACT CELL-BY-CELL BUDGET FILES WILL BE WRITTEN
 AUXILIARY DATA WILL BE SAVED IN CELL-BY-CELL BUDGET FILES
 HEAD PRINT FORMAT CODE IS   0    DRAWDOWN PRINT FORMAT CODE IS   0
 HEADS WILL BE SAVED ON UNIT   51    DRAWDOWNS WILL BE SAVED ON UNIT    0

 BCF -- BLOCK-CENTERED FLOW PACKAGE, VERSION 7, 5/2/2005
         INPUT READ FROM UNIT 15
 STEADY-STATE SIMULATION
 CELL-BY-CELL FLOWS WILL BE SAVED ON UNIT 53
 HEAD AT CELLS THAT CONVERT TO DRY= -0.10000E+31
 WETTING CAPABILITY IS NOT ACTIVE
      LAYER  LAYER-TYPE CODE     INTERBLOCK T
      --------------------------------------------
         1            3          0 -- HARMONIC    

 COLUMN TO ROW ANISOTROPY =   1.00000    



              HYD. COND. ALONG ROWS FOR LAYER   1
 READING ON UNIT   15 WITH FORMAT: (25E15.6)           

 PCG -- CONJUGATE-GRADIENT SOLUTION PACKAGE, VERSION 7, 5/2/2005
 # PCG package for MODFLOW-2005 generated by Flopy 3.9.5
 MAXIMUM OF     50 CALLS OF SOLUTION ROUTINE
 MAXIMUM OF     30 INTERNAL ITERATIONS PER CALL TO SOLUTION ROUTINE
 MATRIX PRECONDITIONING TYPE :    1



                                    SOLUTION BY THE CONJUGATE-GRADIENT METHOD
                                   -------------------------------------------
                    MAXIMUM NUMBER OF CALLS TO PCG ROUTINE =       50
                        MAXIMUM ITERATIONS PER CALL TO PCG =       30
                               MATRIX PRECONDITIONING TYPE =        1
        RELAXATION FACTOR (ONLY USED WITH PRECOND. TYPE 1) =    0.10000E+01
 PARAMETER OF POLYNOMIAL PRECOND. = 2 (2) OR IS CALCULATED :        0
                         HEAD CHANGE CRITERION FOR CLOSURE =    0.10000E-04
                     RESIDUAL CHANGE CRITERION FOR CLOSURE =    0.10000E-04
            PCG HEAD AND RESIDUAL CHANGE PRINTOUT INTERVAL =      999
     PRINTING FROM SOLVER IS LIMITED(1) OR SUPPRESSED (>1) =        3
                            STEADY-STATE DAMPING PARAMETER =    0.10000E+01
                               TRANSIENT DAMPING PARAMETER =    0.10000E+01
1
                            STRESS PERIOD NO.    1, LENGTH =   1.000000    
                            -----------------------------------------------

                              NUMBER OF TIME STEPS =     1

                               MULTIPLIER FOR DELT =     1.000

                            INITIAL TIME STEP SIZE =   1.000000    
 
 SOLVING FOR HEAD 

 OUTPUT CONTROL FOR STRESS PERIOD    1   TIME STEP    1
    PRINT HEAD FOR ALL LAYERS
    PRINT BUDGET
    SAVE HEAD FOR ALL LAYERS
    SAVE BUDGET
 UBDSV2 SAVING "   CONSTANT HEAD" ON UNIT  53 AT TIME STEP  1, STRESS PERIOD   1
 UBDSV1 SAVING "FLOW RIGHT FACE " ON UNIT  53 AT TIME STEP  1, STRESS PERIOD   1
 UBDSV1 SAVING "FLOW FRONT FACE " ON UNIT  53 AT TIME STEP  1, STRESS PERIOD   1
1
              HEAD IN LAYER   1 AT END OF TIME STEP   1 IN STRESS PERIOD    1
  ---------------------------------------------------------------------------

            1           2           3           4           5           6           7           8           9          10
           11          12          13          14          15          16          17          18          19          20
           21          22          23          24          25
 ........................................................................................................................
   1    20.00       19.59       19.19       18.78       18.37       17.96       17.54       17.13       16.71       16.28    
        15.86       15.43       15.00       14.57       14.14       13.72       13.29       12.87       12.46       12.04    
        11.63       11.22       10.81       10.41       10.00    
   2    20.00       19.59       19.19       18.78       18.37       17.96       17.55       17.13       16.71       16.29    
        15.86       15.43       15.00       14.57       14.14       13.71       13.29       12.87       12.45       12.04    
        11.63       11.22       10.81       10.41       10.00    
   3    20.00       19.60       19.19       18.78       18.38       17.97       17.55       17.14       16.72       16.29    
        15.86       15.43       15.00       14.57       14.14       13.71       13.28       12.86       12.45       12.03    
        11.62       11.22       10.81       10.40       10.00    
   4    20.00       19.60       19.19       18.79       18.38       17.98       17.56       17.15       16.73       16.30    
        15.87       15.44       15.00       14.56       14.13       13.70       13.27       12.85       12.44       12.02    
        11.62       11.21       10.81       10.40       10.00    
   5    20.00       19.60       19.20       18.80       18.39       17.99       17.58       17.16       16.74       16.31    
        15.88       15.44       15.00       14.56       14.12       13.69       13.26       12.84       12.42       12.01    
        11.61       11.20       10.80       10.40       10.00    
   6    20.00       19.60       19.21       18.81       18.41       18.00       17.60       17.18       16.76       16.33    
        15.89       15.45       15.00       14.55       14.11       13.67       13.24       12.82       12.40       12.00    
        11.59       11.19       10.79       10.40       10.00    
   7    20.00       19.61       19.21       18.82       18.42       18.02       17.62       17.21       16.79       16.36    
        15.92       15.46       15.00       14.54       14.08       13.64       13.21       12.79       12.38       11.98    
        11.58       11.18       10.79       10.39       10.00    
   8    20.00       19.61       19.22       18.83       18.44       18.05       17.65       17.25       16.83       16.40    
        15.95       15.48       15.00       14.52       14.05       13.60       13.17       12.75       12.35       11.95    
        11.56       11.17       10.78       10.39       10.00    
   9    20.00       19.61       19.23       18.84       18.46       18.07       17.69       17.30       16.90       16.47    
        15.99       15.50       15.00       14.50       14.01       13.53       13.10       12.70       12.31       11.93    
        11.54       11.16       10.77       10.39       10.00    
  10    20.00       19.62       19.24       18.86       18.48       18.10       17.73       17.36       16.98       16.58    
        16.06       15.53       15.00       14.47       13.94       13.42       13.02       12.64       12.27       11.90    
        11.52       11.14       10.76       10.38       10.00    
  11    20.00       19.62       19.24       18.87       18.50       18.13       17.77       17.42       17.10       16.81    
        16.28       15.61       15.00       14.39       13.72       13.19       12.90       12.58       12.23       11.87    
        11.50       11.13       10.76       10.38       10.00    
  12    20.00       19.62       19.25       18.88       18.51       18.15       17.80       17.47       17.17       16.92    
        16.42       15.68       15.00       14.32       13.58       13.08       12.83       12.53       12.20       11.85    
        11.49       11.12       10.75       10.38       10.00    
  13    20.00       19.62       19.25       18.88       18.51       18.16       17.81       17.49       17.20       16.96    
        16.46       15.71       15.00       14.29       13.54       13.04       12.80       12.51       12.19       11.84    
        11.49       11.12       10.75       10.38       10.00    
  14    20.00       19.62       19.25       18.88       18.51       18.15       17.80       17.47       17.17       16.92    
        16.42       15.68       15.00       14.32       13.58       13.08       12.83       12.53       12.20       11.85    
        11.49       11.12       10.75       10.38       10.00    
  15    20.00       19.62       19.24       18.87       18.50       18.13       17.77       17.42       17.10       16.81    
        16.28       15.61       15.00       14.39       13.72       13.19       12.90       12.58       12.23       11.87    
        11.50       11.13       10.76       10.38       10.00    
  16    20.00       19.62       19.24       18.86       18.48       18.10       17.73       17.36       16.98       16.58    
        16.06       15.53       15.00       14.47       13.94       13.42       13.02       12.64       12.27       11.90    
        11.52       11.14       10.76       10.38       10.00    
  17    20.00       19.61       19.23       18.84       18.46       18.07       17.69       17.30       16.90       16.47    
        15.99       15.50       15.00       14.50       14.01       13.53       13.10       12.70       12.31       11.93    
        11.54       11.16       10.77       10.39       10.00    
  18    20.00       19.61       19.22       18.83       18.44       18.05       17.65       17.25       16.83       16.40    
        15.95       15.48       15.00       14.52       14.05       13.60       13.17       12.75       12.35       11.95    
        11.56       11.17       10.78       10.39       10.00    
  19    20.00       19.61       19.21       18.82       18.42       18.02       17.62       17.21       16.79       16.36    
        15.92       15.46       15.00       14.54       14.08       13.64       13.21       12.79       12.38       11.98    
        11.58       11.18       10.79       10.39       10.00    
  20    20.00       19.60       19.21       18.81       18.41       18.00       17.60       17.18       16.76       16.33    
        15.89       15.45       15.00       14.55       14.11       13.67       13.24       12.82       12.40       12.00    
        11.59       11.19       10.79       10.40       10.00    
  21    20.00       19.60       19.20       18.80       18.39       17.99       17.58       17.16       16.74       16.31    
        15.88       15.44       15.00       14.56       14.12       13.69       13.26       12.84       12.42       12.01    
        11.61       11.20       10.80       10.40       10.00    
  22    20.00       19.60       19.19       18.79       18.38       17.98       17.56       17.15       16.73       16.30    
        15.87       15.44       15.00       14.56       14.13       13.70       13.27       12.85       12.44       12.02    
        11.62       11.21       10.81       10.40       10.00    
  23    20.00       19.60       19.19       18.78       18.38       17.97       17.55       17.14       16.72       16.29    
        15.86       15.43       15.00       14.57       14.14       13.71       13.28       12.86       12.45       12.03    
        11.62       11.22       10.81       10.40       10.00    
  24    20.00       19.59       19.19       18.78       18.37       17.96       17.55       17.13       16.71       16.29    
        15.86       15.43       15.00       14.57       14.14       13.71       13.29       12.87       12.45       12.04    
        11.63       11.22       10.81       10.41       10.00    
  25    20.00       19.59       19.19       18.78       18.37       17.96       17.54       17.13       16.71       16.28    
        15.86       15.43       15.00       14.57       14.14       13.72       13.29       12.87       12.46       12.04    
        11.63       11.22       10.81       10.41       10.00    

 HEAD WILL BE SAVED ON UNIT   51 AT END OF TIME STEP    1, STRESS PERIOD    1
1
  VOLUMETRIC BUDGET FOR ENTIRE MODEL AT END OF TIME STEP    1, STRESS PERIOD   1
  ------------------------------------------------------------------------------

     CUMULATIVE VOLUMES      L**3       RATES FOR THIS TIME STEP      L**3/T
     ------------------                 ------------------------

           IN:                                      IN:
           ---                                      ---
             STORAGE =           0.0000               STORAGE =           0.0000
       CONSTANT HEAD =          98.1709         CONSTANT HEAD =          98.1709

            TOTAL IN =          98.1709              TOTAL IN =          98.1709

          OUT:                                     OUT:
          ----                                     ----
             STORAGE =           0.0000               STORAGE =           0.0000
       CONSTANT HEAD =          98.1709         CONSTANT HEAD =          98.1709

           TOTAL OUT =          98.1709             TOTAL OUT =          98.1709

            IN - OUT =           0.0000              IN - OUT =           0.0000

 PERCENT DISCREPANCY =           0.00     PERCENT DISCREPANCY =           0.00






         TIME SUMMARY AT END OF TIME STEP    1 IN STRESS PERIOD    1
                    SECONDS     MINUTES      HOURS       DAYS        YEARS
                    -----------------------------------------------------------
   TIME STEP LENGTH  86400.      1440.0      24.000      1.0000     2.73785E-03
 STRESS PERIOD TIME  86400.      1440.0      24.000      1.0000     2.73785E-03
         TOTAL TIME  86400.      1440.0      24.000      1.0000     2.73785E-03
1

 Run end date and time (yyyy/mm/dd hh:mm:ss): 2026/02/12  0:31:41
 Elapsed run time:  0.005 Seconds

