                                  MODFLOW-2005     
      U.S. GEOLOGICAL SURVEY MODULAR FINITE-DIFFERENCE GROUND-WATER FLOW MODEL
                            VERSION 1.12.00 2/3/2017

 LIST FILE: OneLayer.list
                         UNIT    2

 OPENING OneLayer.dis
 FILE TYPE:DIS   UNIT   11   STATUS:OLD    
 FORMAT:FORMATTED              ACCESS:SEQUENTIAL          

 OPENING OneLayer.bas
 FILE TYPE:BAS6   UNIT   13   STATUS:OLD    
 FORMAT:FORMATTED              ACCESS:SEQUENTIAL          

 OPENING OneLayer.lpf
 FILE TYPE:LPF   UNIT   15   STATUS:OLD    
 FORMAT:FORMATTED              ACCESS:SEQUENTIAL          

 OPENING OneLayer.rch
 FILE TYPE:RCH   UNIT   19   STATUS:OLD    
 FORMAT:FORMATTED              ACCESS:SEQUENTIAL          

 OPENING OneLayer.wel
 FILE TYPE:WEL   UNIT   20   STATUS:OLD    
 FORMAT:FORMATTED              ACCESS:SEQUENTIAL          

 OPENING OneLayer.oc
 FILE TYPE:OC   UNIT   14   STATUS:OLD    
 FORMAT:FORMATTED              ACCESS:SEQUENTIAL          

 OPENING OneLayer.pcg
 FILE TYPE:PCG   UNIT   27   STATUS:OLD    
 FORMAT:FORMATTED              ACCESS:SEQUENTIAL          

 OPENING OneLayer.cbc
 FILE TYPE:DATA(BINARY)   UNIT   53   STATUS:REPLACE
 FORMAT:UNFORMATTED            ACCESS:STREAM              

 OPENING OneLayer.hds
 FILE TYPE:DATA(BINARY)   UNIT   51   STATUS:REPLACE
 FORMAT:UNFORMATTED            ACCESS:STREAM              

 BAS -- BASIC PACKAGE, VERSION 7, 5/2/2005 INPUT READ FROM UNIT   13
 
 MODFLOW was compiled using mixed precision
 Precision of REAL variables:           6
 Precision of DOUBLE PRECISION variables:          15

 DISCRETIZATION INPUT DATA READ FROM UNIT   11
 # DIS package for MODFLOW-2005 generated by Flopy 3.9.5
    1 LAYERS        50 ROWS        50 COLUMNS
    1 STRESS PERIOD(S) IN SIMULATION
 MODEL TIME UNIT IS DAYS
 MODEL LENGTH UNIT IS METERS
  Confining bed flag for each layer:
   0

                     DELR =   100.000    

                     DELC =   100.000    



           TOP ELEVATION OF LAYER 1
 READING ON UNIT   11 WITH FORMAT: (50E15.6)           

   MODEL LAYER BOTTOM EL. =   0.00000     FOR LAYER   1


 STRESS PERIOD     LENGTH       TIME STEPS     MULTIPLIER FOR DELT    SS FLAG
 ----------------------------------------------------------------------------
        1         1.000000          1                    1.000         SS

 STEADY-STATE SIMULATION



 
 # BAS6 package for MODFLOW-2005 generated by Flopy 3.9.5                        
 THE FREE FORMAT OPTION HAS BEEN SELECTED



                     BOUNDARY ARRAY FOR LAYER   1
 READING ON UNIT   13 WITH FORMAT: (50I10)             

 AQUIFER HEAD WILL BE SET TO  -999.99     AT ALL NO-FLOW NODES (IBOUND=0).



                       INITIAL HEAD FOR LAYER   1
 READING ON UNIT   13 WITH FORMAT: (50E15.6)           
 # OC package for MODFLOW-2005 generated by Flopy 3.9.5

 OUTPUT CONTROL IS SPECIFIED ONLY AT TIME STEPS FOR WHICH OUTPUT IS DESIRED
 COMPACT CELL-BY-CELL BUDGET FILES WILL BE WRITTEN
 AUXILIARY DATA WILL BE SAVED IN CELL-BY-CELL BUDGET FILES
 HEAD PRINT FORMAT CODE IS   0    DRAWDOWN PRINT FORMAT CODE IS   0
 HEADS WILL BE SAVED ON UNIT   51    DRAWDOWNS WILL BE SAVED ON UNIT    0

 LPF -- LAYER-PROPERTY FLOW PACKAGE, VERSION 7, 5/2/2005
         INPUT READ FROM UNIT   15
 # LPF package for MODFLOW-2005 generated by Flopy 3.9.5
 CELL-BY-CELL FLOWS WILL BE SAVED ON UNIT   53
 HEAD AT CELLS THAT CONVERT TO DRY= -1.00000E+30
 No named parameters
 STORAGECOEFFICIENT OPTION:
 Read storage coefficient rather than specific storage

   LAYER FLAGS:
 LAYER       LAYTYP        LAYAVG         CHANI        LAYVKA        LAYWET
 ---------------------------------------------------------------------------
    1             1             0     1.000E+00             0             0

   INTERPRETATION OF LAYER FLAGS:
                        INTERBLOCK     HORIZONTAL    DATA IN
         LAYER TYPE   TRANSMISSIVITY   ANISOTROPY   ARRAY VKA   WETTABILITY
 LAYER      (LAYTYP)      (LAYAVG)       (CHANI)      (LAYVKA)      (LAYWET)
 ---------------------------------------------------------------------------
    1   CONVERTIBLE      HARMONIC     1.000E+00    VERTICAL K  NON-WETTABLE

 WETTING CAPABILITY IS NOT ACTIVE IN ANY LAYER

    HYD. COND. ALONG ROWS =   1.00000     FOR LAYER   1

      VERTICAL HYD. COND. =  0.100000     FOR LAYER   1

 WEL -- WELL PACKAGE, VERSION 7, 5/2/2005 INPUT READ FROM UNIT   20
 # WEL package for MODFLOW-2005 generated by Flopy 3.9.5
 No named parameters
 MAXIMUM OF      1 ACTIVE WELLS AT ONE TIME


     0 Well parameters

 RCH -- RECHARGE PACKAGE, VERSION 7, 5/2/2005 INPUT READ FROM UNIT   19
 # RCH package for MODFLOW-2005 generated by Flopy 3.9.5
 No named parameters
 OPTION 3 -- RECHARGE TO HIGHEST ACTIVE NODE IN EACH VERTICAL COLUMN
 CELL-BY-CELL FLOWS WILL BE SAVED ON UNIT   53


     0 Recharge parameters

 PCG -- CONJUGATE-GRADIENT SOLUTION PACKAGE, VERSION 7, 5/2/2005
 # PCG package for MODFLOW-2005 generated by Flopy 3.9.5
 MAXIMUM OF     50 CALLS OF SOLUTION ROUTINE
 MAXIMUM OF     30 INTERNAL ITERATIONS PER CALL TO SOLUTION ROUTINE
 MATRIX PRECONDITIONING TYPE :    1



                                    SOLUTION BY THE CONJUGATE-GRADIENT METHOD
                                   -------------------------------------------
                    MAXIMUM NUMBER OF CALLS TO PCG ROUTINE =       50
                        MAXIMUM ITERATIONS PER CALL TO PCG =       30
                               MATRIX PRECONDITIONING TYPE =        1
        RELAXATION FACTOR (ONLY USED WITH PRECOND. TYPE 1) =    0.10000E+01
 PARAMETER OF POLYNOMIAL PRECOND. = 2 (2) OR IS CALCULATED :        0
                         HEAD CHANGE CRITERION FOR CLOSURE =    0.10000E-04
                     RESIDUAL CHANGE CRITERION FOR CLOSURE =    0.10000E-04
            PCG HEAD AND RESIDUAL CHANGE PRINTOUT INTERVAL =      999
     PRINTING FROM SOLVER IS LIMITED(1) OR SUPPRESSED (>1) =        3
                            STEADY-STATE DAMPING PARAMETER =    0.10000E+01
                               TRANSIENT DAMPING PARAMETER =    0.10000E+01
1
                            STRESS PERIOD NO.    1, LENGTH =   1.000000    
                            -----------------------------------------------

                              NUMBER OF TIME STEPS =     1

                               MULTIPLIER FOR DELT =     1.000

                            INITIAL TIME STEP SIZE =   1.000000    

 WELL NO.  LAYER   ROW   COL   STRESS RATE         
 --------------------------------------------------
      1      1     25     25      -500.0    

      1 WELL 



                           RECHARGE
 READING ON UNIT   19 WITH FORMAT: (50E15.6)           
 
 SOLVING FOR HEAD 

 OUTPUT CONTROL FOR STRESS PERIOD    1   TIME STEP    1
    PRINT HEAD FOR ALL LAYERS
    PRINT BUDGET
    SAVE HEAD FOR ALL LAYERS
    SAVE BUDGET
 UBDSV2 SAVING "   CONSTANT HEAD" ON UNIT  53 AT TIME STEP  1, STRESS PERIOD   1
 UBDSV1 SAVING "FLOW RIGHT FACE " ON UNIT  53 AT TIME STEP  1, STRESS PERIOD   1
 UBDSV1 SAVING "FLOW FRONT FACE " ON UNIT  53 AT TIME STEP  1, STRESS PERIOD   1
 UBDSV3 SAVING "        RECHARGE" ON UNIT  53 AT TIME STEP  1, STRESS PERIOD   1
1
              HEAD IN LAYER   1 AT END OF TIME STEP   1 IN STRESS PERIOD    1
  ---------------------------------------------------------------------------

            1           2           3           4           5           6           7           8           9          10
           11          12          13          14          15          16          17          18          19          20
           21          22          23          24          25          26          27          28          29          30
           31          32          33          34          35          36          37          38          39          40
           41          42          43          44          45          46          47          48          49          50
 ........................................................................................................................
   1    85.00       84.81       84.62       84.42       84.21       84.00       83.78       83.55       83.32       83.09    
        82.85       82.61       82.36       82.10       81.84       81.58       81.31       81.04       80.76       80.48    
        80.20       79.92       79.63       79.33       79.04       78.74       78.43       78.13       77.81       77.50    
        77.18       76.86       76.53       76.20       75.86       75.52       75.17       74.82       74.46       74.09    
        73.72       73.34       72.95       72.56       72.15       71.74       71.32       70.89       70.45       70.00    
   2    85.00       84.81       84.62       84.42       84.21       84.00       83.78       83.55       83.32       83.09    
        82.85       82.60       82.35       82.10       81.84       81.58       81.31       81.04       80.76       80.48    
        80.20       79.91       79.62       79.33       79.03       78.73       78.43       78.12       77.81       77.50    
        77.18       76.86       76.53       76.20       75.86       75.52       75.17       74.82       74.46       74.09    
        73.72       73.34       72.95       72.55       72.15       71.74       71.32       70.89       70.45       70.00    
   3    85.00       84.81       84.62       84.41       84.21       83.99       83.78       83.55       83.32       83.09    
        82.85       82.60       82.35       82.09       81.83       81.57       81.30       81.03       80.75       80.47    
        80.19       79.90       79.61       79.32       79.02       78.72       78.42       78.11       77.80       77.49    
        77.17       76.85       76.52       76.19       75.85       75.51       75.17       74.81       74.45       74.09    
        73.72       73.34       72.95       72.55       72.15       71.74       71.32       70.89       70.45       70.00    
   4    85.00       84.81       84.61       84.41       84.21       83.99       83.77       83.55       83.32       83.08    
        82.84       82.59       82.34       82.09       81.83       81.56       81.29       81.02       80.74       80.46    
        80.18       79.89       79.60       79.31       79.01       78.71       78.41       78.10       77.79       77.48    
        77.16       76.84       76.51       76.18       75.85       75.51       75.16       74.81       74.45       74.08    
        73.71       73.33       72.94       72.55       72.15       71.74       71.32       70.89       70.45       70.00    
   5    85.00       84.81       84.61       84.41       84.20       83.99       83.77       83.54       83.31       83.08    
        82.83       82.59       82.33       82.08       81.82       81.55       81.28       81.01       80.73       80.45    
        80.16       79.88       79.59       79.29       78.99       78.69       78.39       78.09       77.78       77.46    
        77.15       76.83       76.50       76.17       75.84       75.50       75.15       74.80       74.44       74.08    
        73.70       73.33       72.94       72.55       72.14       71.73       71.31       70.89       70.45       70.00    
   6    85.00       84.81       84.61       84.41       84.20       83.99       83.76       83.54       83.31       83.07    
        82.82       82.58       82.32       82.07       81.80       81.54       81.27       80.99       80.71       80.43    
        80.14       79.86       79.56       79.27       78.97       78.67       78.37       78.06       77.76       77.44    
        77.13       76.81       76.48       76.15       75.82       75.48       75.14       74.79       74.43       74.07    
        73.70       73.32       72.93       72.54       72.14       71.73       71.31       70.88       70.45       70.00    
   7    85.00       84.81       84.61       84.41       84.20       83.98       83.76       83.53       83.30       83.06    
        82.81       82.57       82.31       82.05       81.79       81.52       81.25       80.97       80.69       80.41    
        80.12       79.83       79.54       79.24       78.95       78.65       78.35       78.04       77.73       77.42    
        77.11       76.79       76.46       76.14       75.80       75.47       75.12       74.77       74.42       74.06    
        73.69       73.31       72.93       72.54       72.14       71.73       71.31       70.88       70.45       70.00    
   8    85.00       84.81       84.61       84.40       84.19       83.98       83.75       83.52       83.29       83.05    
        82.80       82.55       82.30       82.04       81.77       81.50       81.23       80.95       80.67       80.38    
        80.09       79.80       79.51       79.21       78.92       78.62       78.31       78.01       77.70       77.39    
        77.08       76.76       76.44       76.12       75.78       75.45       75.11       74.76       74.41       74.05    
        73.68       73.30       72.92       72.53       72.13       71.72       71.31       70.88       70.44       70.00    
   9    85.00       84.81       84.61       84.40       84.19       83.97       83.75       83.52       83.28       83.04    
        82.79       82.54       82.28       82.02       81.75       81.48       81.20       80.92       80.64       80.35    
        80.06       79.77       79.48       79.18       78.88       78.58       78.28       77.98       77.67       77.36    
        77.05       76.73       76.41       76.09       75.76       75.43       75.09       74.74       74.39       74.03    
        73.67       73.29       72.91       72.52       72.12       71.72       71.30       70.88       70.44       70.00    
  10    85.00       84.81       84.60       84.40       84.18       83.96       83.74       83.51       83.27       83.02    
        82.78       82.52       82.26       82.00       81.73       81.45       81.17       80.89       80.60       80.32    
        80.02       79.73       79.43       79.14       78.84       78.54       78.24       77.94       77.63       77.32    
        77.01       76.70       76.38       76.06       75.74       75.41       75.07       74.72       74.37       74.02    
        73.65       73.28       72.90       72.51       72.12       71.71       71.30       70.88       70.44       70.00    
  11    85.00       84.80       84.60       84.39       84.18       83.96       83.73       83.50       83.26       83.01    
        82.76       82.50       82.24       81.97       81.70       81.42       81.14       80.86       80.57       80.28    
        79.98       79.69       79.39       79.09       78.79       78.49       78.19       77.89       77.59       77.28    
        76.98       76.67       76.35       76.03       75.71       75.38       75.05       74.70       74.36       74.00    
        73.64       73.27       72.89       72.51       72.11       71.71       71.29       70.87       70.44       70.00    
  12    85.00       84.80       84.60       84.39       84.17       83.95       83.72       83.49       83.24       83.00    
        82.74       82.48       82.22       81.95       81.67       81.39       81.11       80.82       80.53       80.23    
        79.93       79.64       79.34       79.04       78.74       78.44       78.14       77.84       77.54       77.24    
        76.93       76.62       76.31       76.00       75.68       75.35       75.02       74.68       74.34       73.98    
        73.62       73.26       72.88       72.50       72.10       71.70       71.29       70.87       70.44       70.00    
  13    85.00       84.80       84.60       84.38       84.17       83.94       83.71       83.47       83.23       82.98    
        82.72       82.46       82.19       81.92       81.64       81.36       81.07       80.78       80.48       80.18    
        79.88       79.58       79.28       78.98       78.68       78.38       78.08       77.78       77.48       77.18    
        76.88       76.58       76.27       75.96       75.65       75.32       74.99       74.66       74.32       73.97    
        73.61       73.24       72.87       72.49       72.10       71.69       71.29       70.87       70.44       70.00    
  14    85.00       84.80       84.59       84.38       84.16       83.93       83.70       83.46       83.22       82.96    
        82.71       82.44       82.17       81.89       81.61       81.32       81.03       80.73       80.43       80.12    
        79.82       79.51       79.21       78.91       78.60       78.31       78.01       77.71       77.42       77.13    
        76.83       76.53       76.23       75.92       75.61       75.29       74.97       74.64       74.30       73.95    
        73.59       73.23       72.86       72.48       72.09       71.69       71.28       70.86       70.44       70.00    
  15    85.00       84.80       84.59       84.38       84.15       83.93       83.69       83.45       83.20       82.95    
        82.69       82.42       82.14       81.86       81.57       81.28       80.98       80.68       80.37       80.06    
        79.75       79.44       79.13       78.83       78.52       78.23       77.93       77.64       77.35       77.06    
        76.77       76.48       76.18       75.88       75.57       75.26       74.94       74.61       74.27       73.93    
        73.58       73.22       72.85       72.47       72.08       71.68       71.28       70.86       70.44       70.00    
  16    85.00       84.80       84.59       84.37       84.15       83.92       83.68       83.44       83.19       82.93    
        82.67       82.40       82.12       81.83       81.54       81.24       80.94       80.63       80.31       79.99    
        79.68       79.36       79.04       78.73       78.43       78.13       77.84       77.56       77.27       76.99    
        76.71       76.42       76.13       75.84       75.53       75.23       74.91       74.58       74.25       73.91    
        73.56       73.20       72.83       72.46       72.07       71.68       71.27       70.86       70.43       70.00    
  17    85.00       84.80       84.58       84.37       84.14       83.91       83.67       83.43       83.18       82.92    
        82.65       82.37       82.09       81.80       81.50       81.20       80.89       80.57       80.25       79.92    
        79.59       79.27       78.94       78.63       78.32       78.03       77.74       77.46       77.19       76.91    
        76.64       76.36       76.08       75.79       75.50       75.19       74.88       74.56       74.23       73.89    
        73.55       73.19       72.82       72.45       72.06       71.67       71.27       70.85       70.43       70.00    
  18    85.00       84.79       84.58       84.36       84.14       83.90       83.66       83.42       83.16       82.90    
        82.63       82.35       82.06       81.77       81.47       81.16       80.84       80.51       80.18       79.84    
        79.50       79.16       78.83       78.51       78.20       77.90       77.62       77.36       77.09       76.83    
        76.57       76.30       76.03       75.74       75.46       75.16       74.85       74.54       74.21       73.87    
        73.53       73.18       72.81       72.44       72.06       71.67       71.26       70.85       70.43       70.00    
  19    85.00       84.79       84.58       84.36       84.13       83.90       83.66       83.41       83.15       82.89    
        82.61       82.33       82.04       81.74       81.43       81.11       80.79       80.45       80.10       79.75    
        79.40       79.05       78.70       78.36       78.05       77.76       77.49       77.23       76.99       76.74    
        76.49       76.23       75.97       75.70       75.42       75.13       74.82       74.51       74.19       73.86    
        73.52       73.16       72.80       72.43       72.05       71.66       71.26       70.85       70.43       70.00    
  20    85.00       84.79       84.58       84.36       84.13       83.89       83.65       83.40       83.14       82.87    
        82.60       82.31       82.02       81.71       81.40       81.07       80.74       80.39       80.03       79.66    
        79.29       78.91       78.54       78.19       77.87       77.59       77.33       77.10       76.87       76.65    
        76.41       76.17       75.92       75.66       75.38       75.10       74.80       74.49       74.17       73.84    
        73.50       73.15       72.79       72.42       72.05       71.66       71.26       70.85       70.43       70.00    
  21    85.00       84.79       84.58       84.35       84.12       83.89       83.64       83.39       83.13       82.86    
        82.58       82.29       82.00       81.69       81.37       81.04       80.69       80.33       79.96       79.57    
        79.17       78.77       78.36       77.98       77.65       77.38       77.15       76.95       76.75       76.55    
        76.34       76.11       75.87       75.62       75.35       75.07       74.78       74.47       74.16       73.83    
        73.49       73.14       72.79       72.42       72.04       71.65       71.25       70.85       70.43       70.00    
  22    85.00       84.79       84.57       84.35       84.12       83.88       83.64       83.38       83.12       82.85    
        82.57       82.28       81.98       81.67       81.34       81.00       80.65       80.28       79.89       79.48    
        79.05       78.61       78.15       77.72       77.35       77.11       76.94       76.79       76.63       76.46    
        76.27       76.06       75.83       75.58       75.32       75.05       74.76       74.46       74.14       73.82    
        73.48       73.14       72.78       72.41       72.04       71.65       71.25       70.84       70.43       70.00    
  23    85.00       84.79       84.57       84.35       84.12       83.88       83.63       83.38       83.12       82.84    
        82.56       82.27       81.97       81.65       81.32       80.98       80.62       80.24       79.83       79.41    
        78.94       78.45       77.92       77.38       76.92       76.77       76.70       76.62       76.52       76.38    
        76.21       76.01       75.79       75.55       75.30       75.03       74.74       74.45       74.13       73.81    
        73.48       73.13       72.78       72.41       72.03       71.65       71.25       70.84       70.43       70.00    
  24    85.00       84.79       84.57       84.35       84.12       83.88       83.63       83.38       83.11       82.84    
        82.56       82.26       81.96       81.64       81.31       80.96       80.60       80.21       79.80       79.35    
        78.86       78.31       77.68       76.94       76.19       76.32       76.45       76.48       76.43       76.32    
        76.17       75.98       75.77       75.54       75.29       75.02       74.74       74.44       74.13       73.81    
        73.47       73.13       72.77       72.41       72.03       71.65       71.25       70.84       70.43       70.00    
  25    85.00       84.79       84.57       84.35       84.12       83.88       83.63       83.38       83.11       82.84    
        82.56       82.26       81.96       81.64       81.31       80.96       80.59       80.20       79.78       79.33    
        78.83       78.25       77.53       76.49       74.53       75.87       76.30       76.42       76.40       76.30    
        76.15       75.97       75.76       75.53       75.28       75.02       74.73       74.44       74.13       73.81    
        73.47       73.13       72.77       72.41       72.03       71.65       71.25       70.84       70.43       70.00    
  26    85.00       84.79       84.57       84.35       84.12       83.88       83.63       83.38       83.11       82.84    
        82.56       82.27       81.96       81.64       81.31       80.96       80.60       80.21       79.80       79.35    
        78.86       78.31       77.68       76.94       76.19       76.32       76.45       76.48       76.43       76.32    
        76.17       75.98       75.77       75.54       75.29       75.02       74.74       74.44       74.13       73.81    
        73.47       73.13       72.77       72.41       72.03       71.65       71.25       70.84       70.43       70.00    
  27    85.00       84.79       84.57       84.35       84.12       83.88       83.64       83.38       83.12       82.85    
        82.56       82.27       81.97       81.65       81.32       80.98       80.62       80.24       79.84       79.41    
        78.95       78.45       77.92       77.38       76.93       76.77       76.70       76.63       76.52       76.38    
        76.21       76.01       75.80       75.56       75.30       75.03       74.75       74.45       74.14       73.81    
        73.48       73.13       72.78       72.41       72.03       71.65       71.25       70.84       70.43       70.00    
  28    85.00       84.79       84.57       84.35       84.12       83.88       83.64       83.39       83.12       82.85    
        82.57       82.28       81.98       81.67       81.35       81.01       80.65       80.28       79.89       79.49    
        79.06       78.61       78.16       77.72       77.36       77.11       76.94       76.79       76.63       76.46    
        76.27       76.06       75.83       75.58       75.32       75.05       74.76       74.46       74.15       73.82    
        73.49       73.14       72.78       72.42       72.04       71.65       71.25       70.84       70.43       70.00    
  29    85.00       84.79       84.58       84.35       84.13       83.89       83.64       83.39       83.13       82.86    
        82.59       82.30       82.00       81.69       81.37       81.04       80.69       80.34       79.96       79.58    
        79.18       78.77       78.37       77.99       77.65       77.38       77.16       76.96       76.76       76.56    
        76.34       76.12       75.87       75.62       75.35       75.07       74.78       74.48       74.16       73.83    
        73.50       73.15       72.79       72.42       72.04       71.65       71.25       70.85       70.43       70.00    
  30    85.00       84.79       84.58       84.36       84.13       83.89       83.65       83.40       83.14       82.88    
        82.60       82.32       82.02       81.72       81.40       81.08       80.74       80.39       80.04       79.67    
        79.30       78.92       78.55       78.20       77.88       77.59       77.34       77.11       76.88       76.65    
        76.42       76.18       75.93       75.66       75.39       75.10       74.80       74.50       74.18       73.85    
        73.51       73.16       72.80       72.43       72.05       71.66       71.26       70.85       70.43       70.00    
  31    85.00       84.79       84.58       84.36       84.13       83.90       83.66       83.41       83.15       82.89    
        82.62       82.34       82.05       81.75       81.44       81.12       80.79       80.46       80.11       79.76    
        79.41       79.05       78.71       78.37       78.06       77.77       77.50       77.24       77.00       76.75    
        76.50       76.24       75.98       75.71       75.42       75.13       74.83       74.52       74.20       73.86    
        73.52       73.17       72.81       72.44       72.05       71.66       71.26       70.85       70.43       70.00    
  32    85.00       84.79       84.58       84.36       84.14       83.91       83.67       83.42       83.17       82.91    
        82.64       82.36       82.07       81.78       81.47       81.16       80.84       80.52       80.19       79.85    
        79.51       79.17       78.84       78.52       78.21       77.91       77.63       77.36       77.10       76.84    
        76.58       76.31       76.03       75.75       75.46       75.17       74.86       74.54       74.22       73.88    
        73.54       73.18       72.82       72.44       72.06       71.67       71.27       70.85       70.43       70.00    
  33    85.00       84.80       84.59       84.37       84.15       83.91       83.68       83.43       83.18       82.92    
        82.65       82.38       82.10       81.81       81.51       81.21       80.90       80.58       80.26       79.93    
        79.60       79.28       78.96       78.64       78.34       78.04       77.75       77.47       77.20       76.92    
        76.65       76.37       76.09       75.80       75.50       75.20       74.89       74.57       74.24       73.90    
        73.55       73.19       72.83       72.45       72.07       71.67       71.27       70.86       70.43       70.00    
  34    85.00       84.80       84.59       84.37       84.15       83.92       83.69       83.44       83.20       82.94    
        82.67       82.40       82.13       81.84       81.55       81.25       80.95       80.64       80.32       80.01    
        79.69       79.37       79.06       78.75       78.44       78.15       77.86       77.57       77.29       77.00    
        76.72       76.43       76.14       75.85       75.55       75.24       74.92       74.59       74.26       73.92    
        73.57       73.21       72.84       72.46       72.08       71.68       71.27       70.86       70.43       70.00    
  35    85.00       84.80       84.59       84.38       84.16       83.93       83.70       83.46       83.21       82.96    
        82.70       82.43       82.15       81.87       81.59       81.29       80.99       80.69       80.39       80.08    
        79.77       79.46       79.15       78.84       78.54       78.24       77.95       77.65       77.36       77.08    
        76.79       76.49       76.20       75.89       75.59       75.27       74.95       74.62       74.28       73.94    
        73.59       73.22       72.85       72.47       72.08       71.69       71.28       70.86       70.44       70.00    
  36    85.00       84.80       84.59       84.38       84.16       83.94       83.71       83.47       83.22       82.97    
        82.72       82.45       82.18       81.90       81.62       81.33       81.04       80.74       80.44       80.14    
        79.83       79.53       79.22       78.92       78.62       78.32       78.03       77.73       77.44       77.14    
        76.85       76.55       76.24       75.94       75.62       75.30       74.98       74.65       74.31       73.96    
        73.60       73.24       72.87       72.48       72.09       71.69       71.28       70.87       70.44       70.00    
  37    85.00       84.80       84.60       84.39       84.17       83.95       83.72       83.48       83.24       82.99    
        82.73       82.47       82.21       81.93       81.66       81.37       81.08       80.79       80.50       80.20    
        79.90       79.60       79.29       78.99       78.69       78.39       78.10       77.80       77.50       77.20    
        76.90       76.60       76.29       75.98       75.66       75.34       75.01       74.67       74.33       73.98    
        73.62       73.25       72.88       72.49       72.10       71.70       71.29       70.87       70.44       70.00    
  38    85.00       84.80       84.60       84.39       84.18       83.96       83.73       83.49       83.25       83.01    
        82.75       82.50       82.23       81.96       81.69       81.41       81.12       80.83       80.54       80.25    
        79.95       79.65       79.36       79.06       78.76       78.46       78.16       77.86       77.56       77.26    
        76.95       76.64       76.33       76.02       75.69       75.37       75.04       74.70       74.35       74.00    
        73.64       73.27       72.89       72.50       72.11       71.71       71.29       70.87       70.44       70.00    
  39    85.00       84.81       84.60       84.40       84.18       83.96       83.74       83.50       83.27       83.02    
        82.77       82.52       82.25       81.99       81.72       81.44       81.16       80.87       80.59       80.30    
        80.00       79.71       79.41       79.11       78.81       78.51       78.21       77.91       77.61       77.30    
        77.00       76.69       76.37       76.05       75.73       75.40       75.06       74.72       74.37       74.02    
        73.65       73.28       72.90       72.51       72.12       71.71       71.30       70.88       70.44       70.00    
  40    85.00       84.81       84.61       84.40       84.19       83.97       83.75       83.52       83.28       83.04    
        82.79       82.54       82.28       82.01       81.74       81.47       81.19       80.91       80.63       80.34    
        80.05       79.75       79.46       79.16       78.86       78.56       78.26       77.96       77.65       77.35    
        77.04       76.72       76.41       76.08       75.76       75.42       75.09       74.74       74.39       74.03    
        73.67       73.29       72.91       72.52       72.13       71.72       71.30       70.88       70.44       70.00    
  41    85.00       84.81       84.61       84.40       84.19       83.98       83.75       83.53       83.29       83.05    
        82.80       82.55       82.30       82.03       81.77       81.50       81.22       80.94       80.66       80.37    
        80.09       79.79       79.50       79.20       78.91       78.61       78.31       78.00       77.70       77.39    
        77.07       76.76       76.44       76.11       75.78       75.45       75.11       74.76       74.41       74.05    
        73.68       73.31       72.92       72.53       72.13       71.72       71.31       70.88       70.45       70.00    
  42    85.00       84.81       84.61       84.41       84.20       83.98       83.76       83.53       83.30       83.06    
        82.82       82.57       82.31       82.06       81.79       81.52       81.25       80.97       80.69       80.41    
        80.12       79.83       79.54       79.24       78.95       78.65       78.34       78.04       77.73       77.42    
        77.11       76.79       76.47       76.14       75.81       75.47       75.13       74.78       74.42       74.06    
        73.69       73.32       72.93       72.54       72.14       71.73       71.31       70.88       70.45       70.00    
  43    85.00       84.81       84.61       84.41       84.20       83.99       83.77       83.54       83.31       83.07    
        82.83       82.58       82.33       82.07       81.81       81.54       81.27       81.00       80.72       80.44    
        80.15       79.86       79.57       79.28       78.98       78.68       78.38       78.07       77.76       77.45    
        77.13       76.81       76.49       76.16       75.83       75.49       75.15       74.80       74.44       74.08    
        73.70       73.33       72.94       72.55       72.14       71.73       71.31       70.89       70.45       70.00    
  44    85.00       84.81       84.62       84.41       84.21       83.99       83.78       83.55       83.32       83.08    
        82.84       82.60       82.35       82.09       81.83       81.56       81.29       81.02       80.74       80.46    
        80.18       79.89       79.60       79.30       79.01       78.71       78.40       78.10       77.79       77.48    
        77.16       76.84       76.51       76.18       75.85       75.51       75.16       74.81       74.45       74.09    
        73.71       73.34       72.95       72.55       72.15       71.74       71.32       70.89       70.45       70.00    
  45    85.00       84.81       84.62       84.42       84.21       84.00       83.78       83.56       83.33       83.09    
        82.85       82.61       82.36       82.10       81.84       81.58       81.31       81.04       80.76       80.48    
        80.20       79.91       79.62       79.33       79.03       78.73       78.43       78.12       77.81       77.50    
        77.18       76.86       76.53       76.20       75.86       75.52       75.18       74.82       74.46       74.10    
        73.72       73.34       72.96       72.56       72.15       71.74       71.32       70.89       70.45       70.00    
  46    85.00       84.81       84.62       84.42       84.21       84.00       83.79       83.56       83.33       83.10    
        82.86       82.62       82.37       82.11       81.85       81.59       81.32       81.05       80.78       80.50    
        80.22       79.93       79.64       79.35       79.05       78.75       78.45       78.14       77.83       77.52    
        77.20       76.87       76.55       76.22       75.88       75.54       75.19       74.83       74.47       74.11    
        73.73       73.35       72.96       72.56       72.16       71.75       71.32       70.89       70.45       70.00    
  47    85.00       84.81       84.62       84.42       84.22       84.01       83.79       83.57       83.34       83.11    
        82.87       82.62       82.38       82.12       81.86       81.60       81.34       81.07       80.79       80.51    
        80.23       79.94       79.65       79.36       79.07       78.77       78.46       78.15       77.84       77.53    
        77.21       76.89       76.56       76.23       75.89       75.55       75.20       74.84       74.48       74.11    
        73.74       73.36       72.97       72.57       72.16       71.75       71.32       70.89       70.45       70.00    
  48    85.00       84.81       84.62       84.42       84.22       84.01       83.79       83.57       83.34       83.11    
        82.87       82.63       82.38       82.13       81.87       81.61       81.34       81.07       80.80       80.52    
        80.24       79.95       79.67       79.37       79.08       78.78       78.47       78.17       77.85       77.54    
        77.22       76.90       76.57       76.24       75.90       75.55       75.20       74.85       74.49       74.12    
        73.74       73.36       72.97       72.57       72.16       71.75       71.33       70.89       70.45       70.00    
  49    85.00       84.81       84.62       84.42       84.22       84.01       83.79       83.57       83.35       83.11    
        82.88       82.63       82.39       82.13       81.88       81.62       81.35       81.08       80.81       80.53    
        80.25       79.96       79.67       79.38       79.08       78.78       78.48       78.17       77.86       77.55    
        77.23       76.90       76.57       76.24       75.90       75.56       75.21       74.85       74.49       74.12    
        73.74       73.36       72.97       72.57       72.17       71.75       71.33       70.89       70.45       70.00    
  50    85.00       84.81       84.62       84.42       84.22       84.01       83.79       83.57       83.35       83.11    
        82.88       82.64       82.39       82.14       81.88       81.62       81.35       81.08       80.81       80.53    
        80.25       79.97       79.68       79.38       79.09       78.79       78.48       78.18       77.87       77.55    
        77.23       76.91       76.58       76.24       75.90       75.56       75.21       74.85       74.49       74.12    
        73.75       73.36       72.97       72.57       72.17       71.75       71.33       70.89       70.45       70.00    

 HEAD WILL BE SAVED ON UNIT   51 AT END OF TIME STEP    1, STRESS PERIOD    1
1
  VOLUMETRIC BUDGET FOR ENTIRE MODEL AT END OF TIME STEP    1, STRESS PERIOD   1
  ------------------------------------------------------------------------------

     CUMULATIVE VOLUMES      L**3       RATES FOR THIS TIME STEP      L**3/T
     ------------------                 ------------------------

           IN:                                      IN:
           ---                                      ---
             STORAGE =           0.0000               STORAGE =           0.0000
       CONSTANT HEAD =         841.3206         CONSTANT HEAD =         841.3206
               WELLS =           0.0000                 WELLS =           0.0000
            RECHARGE =        1200.0000              RECHARGE =        1200.0000

            TOTAL IN =        2041.3206              TOTAL IN =        2041.3206

          OUT:                                     OUT:
          ----                                     ----
             STORAGE =           0.0000               STORAGE =           0.0000
       CONSTANT HEAD =        1541.3204         CONSTANT HEAD =        1541.3204
               WELLS =         500.0000                 WELLS =         500.0000
            RECHARGE =           0.0000              RECHARGE =           0.0000

           TOTAL OUT =        2041.3204             TOTAL OUT =        2041.3204

            IN - OUT =       1.2207E-04              IN - OUT =       1.2207E-04

 PERCENT DISCREPANCY =           0.00     PERCENT DISCREPANCY =           0.00






         TIME SUMMARY AT END OF TIME STEP    1 IN STRESS PERIOD    1
                    SECONDS     MINUTES      HOURS       DAYS        YEARS
                    -----------------------------------------------------------
   TIME STEP LENGTH  86400.      1440.0      24.000      1.0000     2.73785E-03
 STRESS PERIOD TIME  86400.      1440.0      24.000      1.0000     2.73785E-03
         TOTAL TIME  86400.      1440.0      24.000      1.0000     2.73785E-03
1

 Run end date and time (yyyy/mm/dd hh:mm:ss): 2026/02/12 21:40:19
 Elapsed run time:  0.036 Seconds

