                                  MODFLOW-2005     
      U.S. GEOLOGICAL SURVEY MODULAR FINITE-DIFFERENCE GROUND-WATER FLOW MODEL
                            VERSION 1.12.00 2/3/2017

 LIST FILE: ThreeLayer.list
                         UNIT    2

 OPENING ThreeLayer.dis
 FILE TYPE:DIS   UNIT   11   STATUS:OLD    
 FORMAT:FORMATTED              ACCESS:SEQUENTIAL          

 OPENING ThreeLayer.bas
 FILE TYPE:BAS6   UNIT   13   STATUS:OLD    
 FORMAT:FORMATTED              ACCESS:SEQUENTIAL          

 OPENING ThreeLayer.lpf
 FILE TYPE:LPF   UNIT   15   STATUS:OLD    
 FORMAT:FORMATTED              ACCESS:SEQUENTIAL          

 OPENING ThreeLayer.rch
 FILE TYPE:RCH   UNIT   19   STATUS:OLD    
 FORMAT:FORMATTED              ACCESS:SEQUENTIAL          

 OPENING ThreeLayer.wel
 FILE TYPE:WEL   UNIT   20   STATUS:OLD    
 FORMAT:FORMATTED              ACCESS:SEQUENTIAL          

 OPENING ThreeLayer.oc
 FILE TYPE:OC   UNIT   14   STATUS:OLD    
 FORMAT:FORMATTED              ACCESS:SEQUENTIAL          

 OPENING ThreeLayer.pcg
 FILE TYPE:PCG   UNIT   27   STATUS:OLD    
 FORMAT:FORMATTED              ACCESS:SEQUENTIAL          

 OPENING ThreeLayer.cbc
 FILE TYPE:DATA(BINARY)   UNIT   53   STATUS:REPLACE
 FORMAT:UNFORMATTED            ACCESS:STREAM              

 OPENING ThreeLayer.hds
 FILE TYPE:DATA(BINARY)   UNIT   51   STATUS:REPLACE
 FORMAT:UNFORMATTED            ACCESS:STREAM              

 BAS -- BASIC PACKAGE, VERSION 7, 5/2/2005 INPUT READ FROM UNIT   13
 
 MODFLOW was compiled using mixed precision
 Precision of REAL variables:           6
 Precision of DOUBLE PRECISION variables:          15

 DISCRETIZATION INPUT DATA READ FROM UNIT   11
 # DIS package for MODFLOW-2005 generated by Flopy 3.9.5
    3 LAYERS        50 ROWS        50 COLUMNS
    1 STRESS PERIOD(S) IN SIMULATION
 MODEL TIME UNIT IS DAYS
 MODEL LENGTH UNIT IS METERS
  Confining bed flag for each layer:
   0   0   0

                     DELR =   100.000    

                     DELC =   100.000    



           TOP ELEVATION OF LAYER 1
 READING ON UNIT   11 WITH FORMAT: (50E15.6)           



             MODEL LAYER BOTTOM EL. FOR LAYER   1
 READING ON UNIT   11 WITH FORMAT: (50E15.6)           



             MODEL LAYER BOTTOM EL. FOR LAYER   2
 READING ON UNIT   11 WITH FORMAT: (50E15.6)           



             MODEL LAYER BOTTOM EL. FOR LAYER   3
 READING ON UNIT   11 WITH FORMAT: (50E15.6)           


 STRESS PERIOD     LENGTH       TIME STEPS     MULTIPLIER FOR DELT    SS FLAG
 ----------------------------------------------------------------------------
        1         1.000000          1                    1.000         SS

 STEADY-STATE SIMULATION



 
 # BAS6 package for MODFLOW-2005 generated by Flopy 3.9.5                        
 THE FREE FORMAT OPTION HAS BEEN SELECTED



                     BOUNDARY ARRAY FOR LAYER   1
 READING ON UNIT   13 WITH FORMAT: (50I10)             



                     BOUNDARY ARRAY FOR LAYER   2
 READING ON UNIT   13 WITH FORMAT: (50I10)             



                     BOUNDARY ARRAY FOR LAYER   3
 READING ON UNIT   13 WITH FORMAT: (50I10)             

 AQUIFER HEAD WILL BE SET TO  -999.99     AT ALL NO-FLOW NODES (IBOUND=0).



                       INITIAL HEAD FOR LAYER   1
 READING ON UNIT   13 WITH FORMAT: (50E15.6)           



                       INITIAL HEAD FOR LAYER   2
 READING ON UNIT   13 WITH FORMAT: (50E15.6)           



                       INITIAL HEAD FOR LAYER   3
 READING ON UNIT   13 WITH FORMAT: (50E15.6)           
 # OC package for MODFLOW-2005 generated by Flopy 3.9.5

 OUTPUT CONTROL IS SPECIFIED ONLY AT TIME STEPS FOR WHICH OUTPUT IS DESIRED
 COMPACT CELL-BY-CELL BUDGET FILES WILL BE WRITTEN
 AUXILIARY DATA WILL BE SAVED IN CELL-BY-CELL BUDGET FILES
 HEAD PRINT FORMAT CODE IS   0    DRAWDOWN PRINT FORMAT CODE IS   0
 HEADS WILL BE SAVED ON UNIT   51    DRAWDOWNS WILL BE SAVED ON UNIT    0

 LPF -- LAYER-PROPERTY FLOW PACKAGE, VERSION 7, 5/2/2005
         INPUT READ FROM UNIT   15
 # LPF package for MODFLOW-2005 generated by Flopy 3.9.5
 CELL-BY-CELL FLOWS WILL BE SAVED ON UNIT   53
 HEAD AT CELLS THAT CONVERT TO DRY= -1.00000E+30
 No named parameters
 STORAGECOEFFICIENT OPTION:
 Read storage coefficient rather than specific storage

   LAYER FLAGS:
 LAYER       LAYTYP        LAYAVG         CHANI        LAYVKA        LAYWET
 ---------------------------------------------------------------------------
    1             1             0     1.000E+00             0             0
    2             1             0     1.000E+00             0             0
    3             1             0     1.000E+00             0             0

   INTERPRETATION OF LAYER FLAGS:
                        INTERBLOCK     HORIZONTAL    DATA IN
         LAYER TYPE   TRANSMISSIVITY   ANISOTROPY   ARRAY VKA   WETTABILITY
 LAYER      (LAYTYP)      (LAYAVG)       (CHANI)      (LAYVKA)      (LAYWET)
 ---------------------------------------------------------------------------
    1   CONVERTIBLE      HARMONIC     1.000E+00    VERTICAL K  NON-WETTABLE
    2   CONVERTIBLE      HARMONIC     1.000E+00    VERTICAL K  NON-WETTABLE
    3   CONVERTIBLE      HARMONIC     1.000E+00    VERTICAL K  NON-WETTABLE

 WETTING CAPABILITY IS NOT ACTIVE IN ANY LAYER



              HYD. COND. ALONG ROWS FOR LAYER   1
 READING ON UNIT   15 WITH FORMAT: (50E15.6)           



                VERTICAL HYD. COND. FOR LAYER   1
 READING ON UNIT   15 WITH FORMAT: (50E15.6)           



              HYD. COND. ALONG ROWS FOR LAYER   2
 READING ON UNIT   15 WITH FORMAT: (50E15.6)           



                VERTICAL HYD. COND. FOR LAYER   2
 READING ON UNIT   15 WITH FORMAT: (50E15.6)           



              HYD. COND. ALONG ROWS FOR LAYER   3
 READING ON UNIT   15 WITH FORMAT: (50E15.6)           



                VERTICAL HYD. COND. FOR LAYER   3
 READING ON UNIT   15 WITH FORMAT: (50E15.6)           

 WEL -- WELL PACKAGE, VERSION 7, 5/2/2005 INPUT READ FROM UNIT   20
 # WEL package for MODFLOW-2005 generated by Flopy 3.9.5
 No named parameters
 MAXIMUM OF      1 ACTIVE WELLS AT ONE TIME


     0 Well parameters

 RCH -- RECHARGE PACKAGE, VERSION 7, 5/2/2005 INPUT READ FROM UNIT   19
 # RCH package for MODFLOW-2005 generated by Flopy 3.9.5
 No named parameters
 OPTION 3 -- RECHARGE TO HIGHEST ACTIVE NODE IN EACH VERTICAL COLUMN
 CELL-BY-CELL FLOWS WILL BE SAVED ON UNIT   53


     0 Recharge parameters

 PCG -- CONJUGATE-GRADIENT SOLUTION PACKAGE, VERSION 7, 5/2/2005
 # PCG package for MODFLOW-2005 generated by Flopy 3.9.5
 MAXIMUM OF     50 CALLS OF SOLUTION ROUTINE
 MAXIMUM OF     30 INTERNAL ITERATIONS PER CALL TO SOLUTION ROUTINE
 MATRIX PRECONDITIONING TYPE :    1



                                    SOLUTION BY THE CONJUGATE-GRADIENT METHOD
                                   -------------------------------------------
                    MAXIMUM NUMBER OF CALLS TO PCG ROUTINE =       50
                        MAXIMUM ITERATIONS PER CALL TO PCG =       30
                               MATRIX PRECONDITIONING TYPE =        1
        RELAXATION FACTOR (ONLY USED WITH PRECOND. TYPE 1) =    0.10000E+01
 PARAMETER OF POLYNOMIAL PRECOND. = 2 (2) OR IS CALCULATED :        0
                         HEAD CHANGE CRITERION FOR CLOSURE =    0.10000E-04
                     RESIDUAL CHANGE CRITERION FOR CLOSURE =    0.10000E-04
            PCG HEAD AND RESIDUAL CHANGE PRINTOUT INTERVAL =      999
     PRINTING FROM SOLVER IS LIMITED(1) OR SUPPRESSED (>1) =        3
                            STEADY-STATE DAMPING PARAMETER =    0.10000E+01
                               TRANSIENT DAMPING PARAMETER =    0.10000E+01
1
                            STRESS PERIOD NO.    1, LENGTH =   1.000000    
                            -----------------------------------------------

                              NUMBER OF TIME STEPS =     1

                               MULTIPLIER FOR DELT =     1.000

                            INITIAL TIME STEP SIZE =   1.000000    

 WELL NO.  LAYER   ROW   COL   STRESS RATE         
 --------------------------------------------------
      1      1     25     25      -500.0    

      1 WELL 



                           RECHARGE
 READING ON UNIT   19 WITH FORMAT: (50E15.6)           
 
 SOLVING FOR HEAD 

 OUTPUT CONTROL FOR STRESS PERIOD    1   TIME STEP    1
    PRINT HEAD FOR ALL LAYERS
    PRINT BUDGET
    SAVE HEAD FOR ALL LAYERS
    SAVE BUDGET
 UBDSV2 SAVING "   CONSTANT HEAD" ON UNIT  53 AT TIME STEP  1, STRESS PERIOD   1
 UBDSV1 SAVING "FLOW RIGHT FACE " ON UNIT  53 AT TIME STEP  1, STRESS PERIOD   1
 UBDSV1 SAVING "FLOW FRONT FACE " ON UNIT  53 AT TIME STEP  1, STRESS PERIOD   1
 UBDSV1 SAVING "FLOW LOWER FACE " ON UNIT  53 AT TIME STEP  1, STRESS PERIOD   1
 UBDSV3 SAVING "        RECHARGE" ON UNIT  53 AT TIME STEP  1, STRESS PERIOD   1
1
              HEAD IN LAYER   1 AT END OF TIME STEP   1 IN STRESS PERIOD    1
  ---------------------------------------------------------------------------

            1           2           3           4           5           6           7           8           9          10
           11          12          13          14          15          16          17          18          19          20
           21          22          23          24          25          26          27          28          29          30
           31          32          33          34          35          36          37          38          39          40
           41          42          43          44          45          46          47          48          49          50
 ........................................................................................................................
   1    85.00       84.87       84.72       84.57       84.40       84.23       84.05       83.86       83.67       83.46    
        83.25       83.03       82.80       82.57       82.33       82.08       81.83       81.58       81.32       81.05    
        80.78       80.50       80.22       79.94       79.65       79.36       79.06       78.76       78.45       78.14    
        77.82       77.50       77.17       76.84       76.50       76.14       75.79       75.42       75.04       74.65    
        74.25       73.84       73.42       72.98       72.53       72.06       71.57       71.07       70.55       70.00    
   2    85.00       84.87       84.72       84.57       84.40       84.23       84.05       83.86       83.66       83.46    
        83.25       83.03       82.80       82.57       82.33       82.08       81.83       81.57       81.31       81.04    
        80.77       80.50       80.22       79.93       79.64       79.35       79.06       78.75       78.45       78.14    
        77.82       77.50       77.17       76.83       76.49       76.14       75.78       75.41       75.04       74.65    
        74.25       73.84       73.42       72.98       72.53       72.06       71.57       71.07       70.54       70.00    
   3    85.00       84.87       84.72       84.57       84.40       84.23       84.05       83.86       83.66       83.45    
        83.24       83.02       82.79       82.56       82.32       82.07       81.82       81.56       81.30       81.03    
        80.76       80.49       80.21       79.92       79.63       79.34       79.04       78.74       78.44       78.12    
        77.81       77.49       77.16       76.82       76.48       76.13       75.77       75.41       75.03       74.64    
        74.25       73.84       73.41       72.97       72.52       72.06       71.57       71.07       70.54       70.00    
   4    85.00       84.86       84.72       84.56       84.40       84.23       84.04       83.85       83.65       83.45    
        83.23       83.01       82.78       82.55       82.31       82.06       81.81       81.55       81.29       81.02    
        80.74       80.47       80.19       79.90       79.61       79.32       79.02       78.72       78.42       78.11    
        77.79       77.47       77.14       76.81       76.47       76.12       75.76       75.40       75.02       74.64    
        74.24       73.83       73.41       72.97       72.52       72.05       71.57       71.07       70.54       70.00    
   5    85.00       84.86       84.72       84.56       84.40       84.22       84.04       83.85       83.65       83.44    
        83.22       83.00       82.77       82.53       82.29       82.04       81.79       81.53       81.26       81.00    
        80.72       80.44       80.16       79.88       79.59       79.29       79.00       78.70       78.39       78.08    
        77.77       77.45       77.12       76.79       76.45       76.10       75.75       75.38       75.01       74.63    
        74.23       73.82       73.40       72.96       72.51       72.05       71.56       71.06       70.54       70.00    
   6    85.00       84.86       84.72       84.56       84.39       84.22       84.03       83.84       83.64       83.43    
        83.21       82.99       82.76       82.52       82.27       82.02       81.77       81.50       81.24       80.97    
        80.69       80.41       80.13       79.84       79.56       79.26       78.97       78.67       78.36       78.05    
        77.74       77.42       77.10       76.77       76.43       76.08       75.73       75.37       74.99       74.61    
        74.22       73.81       73.39       72.96       72.51       72.04       71.56       71.06       70.54       70.00    
   7    85.00       84.86       84.71       84.55       84.39       84.21       84.02       83.83       83.63       83.41    
        83.20       82.97       82.74       82.50       82.25       82.00       81.74       81.47       81.21       80.93    
        80.66       80.38       80.09       79.81       79.52       79.22       78.93       78.63       78.32       78.02    
        77.71       77.39       77.07       76.74       76.40       76.06       75.71       75.35       74.98       74.60    
        74.20       73.80       73.38       72.95       72.50       72.04       71.56       71.06       70.54       70.00    
   8    85.00       84.86       84.71       84.55       84.38       84.20       84.01       83.82       83.61       83.40    
        83.18       82.95       82.71       82.47       82.22       81.97       81.71       81.44       81.17       80.89    
        80.61       80.33       80.05       79.76       79.47       79.17       78.88       78.58       78.28       77.97    
        77.66       77.35       77.03       76.71       76.37       76.03       75.68       75.32       74.96       74.58    
        74.19       73.78       73.37       72.94       72.49       72.03       71.55       71.05       70.54       70.00    
   9    85.00       84.86       84.71       84.55       84.37       84.19       84.00       83.81       83.60       83.38    
        83.16       82.93       82.69       82.44       82.19       81.93       81.67       81.40       81.12       80.85    
        80.56       80.28       79.99       79.70       79.41       79.12       78.82       78.53       78.23       77.92    
        77.62       77.31       76.99       76.67       76.34       76.00       75.65       75.30       74.93       74.56    
        74.17       73.77       73.35       72.93       72.48       72.02       71.55       71.05       70.54       70.00    
  10    85.00       84.86       84.70       84.54       84.37       84.18       83.99       83.79       83.58       83.36    
        83.14       82.90       82.66       82.41       82.16       81.89       81.62       81.35       81.07       80.79    
        80.51       80.22       79.93       79.64       79.35       79.05       78.76       78.46       78.17       77.87    
        77.56       77.25       76.94       76.62       76.30       75.96       75.62       75.27       74.91       74.53    
        74.15       73.75       73.34       72.91       72.47       72.01       71.54       71.05       70.53       70.00    
  11    85.00       84.85       84.70       84.53       84.36       84.17       83.98       83.78       83.56       83.34    
        83.11       82.88       82.63       82.38       82.12       81.85       81.58       81.30       81.02       80.73    
        80.44       80.15       79.86       79.56       79.27       78.98       78.68       78.39       78.10       77.80    
        77.50       77.20       76.89       76.57       76.25       75.92       75.58       75.24       74.88       74.51    
        74.13       73.73       73.32       72.90       72.46       72.01       71.53       71.04       70.53       70.00    
  12    85.00       84.85       84.70       84.53       84.35       84.16       83.97       83.76       83.55       83.32    
        83.09       82.85       82.60       82.34       82.07       81.80       81.52       81.24       80.95       80.66    
        80.36       80.07       79.77       79.48       79.18       78.89       78.60       78.31       78.02       77.72    
        77.43       77.13       76.83       76.52       76.20       75.88       75.55       75.20       74.85       74.48    
        74.10       73.71       73.30       72.88       72.45       72.00       71.53       71.04       70.53       70.00    
  13    85.00       84.85       84.69       84.52       84.34       84.15       83.95       83.74       83.53       83.30    
        83.06       82.82       82.56       82.30       82.03       81.75       81.46       81.17       80.88       80.58    
        80.28       79.98       79.68       79.38       79.08       78.79       78.50       78.21       77.93       77.64    
        77.35       77.06       76.76       76.46       76.15       75.83       75.50       75.16       74.81       74.45    
        74.08       73.69       73.29       72.87       72.44       71.99       71.52       71.03       70.53       70.00    
  14    85.00       84.85       84.69       84.52       84.33       84.14       83.94       83.73       83.51       83.27    
        83.03       82.78       82.52       82.25       81.98       81.69       81.40       81.10       80.80       80.49    
        80.18       79.87       79.57       79.27       78.97       78.68       78.39       78.11       77.83       77.55    
        77.26       76.98       76.69       76.40       76.09       75.78       75.46       75.13       74.78       74.42    
        74.05       73.67       73.27       72.85       72.42       71.98       71.51       71.03       70.52       70.00    
  15    85.00       84.85       84.68       84.51       84.32       84.13       83.93       83.71       83.49       83.25    
        83.00       82.75       82.48       82.21       81.92       81.63       81.33       81.02       80.71       80.39    
        80.07       79.76       79.44       79.14       78.84       78.54       78.26       77.98       77.71       77.44    
        77.17       76.89       76.61       76.33       76.03       75.73       75.41       75.08       74.74       74.39    
        74.03       73.64       73.25       72.84       72.41       71.97       71.50       71.02       70.52       70.00    
  16    85.00       84.84       84.68       84.50       84.32       84.12       83.91       83.69       83.46       83.23    
        82.98       82.71       82.44       82.16       81.87       81.57       81.26       80.94       80.61       80.28    
        79.95       79.62       79.30       78.98       78.68       78.39       78.11       77.84       77.58       77.32    
        77.06       76.80       76.53       76.26       75.97       75.67       75.36       75.04       74.71       74.36    
        74.00       73.62       73.23       72.82       72.40       71.96       71.50       71.02       70.52       70.00    
  17    85.00       84.84       84.67       84.50       84.31       84.11       83.90       83.68       83.44       83.20    
        82.95       82.68       82.40       82.11       81.81       81.50       81.18       80.85       80.51       80.16    
        79.81       79.47       79.13       78.81       78.50       78.21       77.94       77.69       77.44       77.19    
        76.95       76.70       76.44       76.18       75.90       75.62       75.32       75.00       74.67       74.33    
        73.97       73.60       73.21       72.81       72.39       71.95       71.49       71.01       70.52       70.00    
  18    85.00       84.84       84.67       84.49       84.30       84.10       83.88       83.66       83.42       83.18    
        82.92       82.65       82.36       82.06       81.75       81.43       81.10       80.75       80.39       80.03    
        79.66       79.30       78.94       78.60       78.29       78.00       77.74       77.50       77.28       77.05    
        76.83       76.60       76.35       76.10       75.84       75.56       75.27       74.96       74.64       74.30    
        73.95       73.58       73.19       72.79       72.37       71.94       71.48       71.01       70.51       70.00    
  19    85.00       84.84       84.67       84.49       84.29       84.09       83.87       83.65       83.41       83.16    
        82.89       82.61       82.32       82.02       81.70       81.36       81.01       80.65       80.27       79.88    
        79.49       79.10       78.72       78.36       78.04       77.76       77.51       77.30       77.10       76.90    
        76.70       76.49       76.26       76.03       75.77       75.51       75.22       74.92       74.61       74.27    
        73.93       73.56       73.18       72.78       72.36       71.93       71.48       71.00       70.51       70.00    
  20    85.00       84.84       84.66       84.48       84.29       84.08       83.86       83.63       83.39       83.13    
        82.87       82.58       82.29       81.97       81.64       81.30       80.93       80.55       80.15       79.73    
        79.30       78.87       78.45       78.06       77.72       77.45       77.24       77.06       76.90       76.74    
        76.56       76.38       76.17       75.95       75.71       75.46       75.18       74.89       74.58       74.25    
        73.90       73.54       73.16       72.77       72.35       71.92       71.47       71.00       70.51       70.00    
  21    85.00       84.84       84.66       84.48       84.28       84.07       83.85       83.62       83.38       83.12    
        82.85       82.56       82.26       81.93       81.60       81.24       80.86       80.46       80.03       79.58    
        79.10       78.62       78.14       77.69       77.33       77.08       76.92       76.80       76.69       76.57    
        76.43       76.27       76.09       75.89       75.66       75.41       75.14       74.86       74.55       74.23    
        73.89       73.53       73.15       72.76       72.35       71.92       71.47       71.00       70.51       70.00    
  22    85.00       84.84       84.66       84.47       84.28       84.07       83.84       83.61       83.36       83.10    
        82.83       82.54       82.23       81.90       81.56       81.19       80.79       80.37       79.92       79.43    
        78.90       78.34       77.76       77.22       76.79       76.60       76.53       76.51       76.47       76.41    
        76.31       76.18       76.02       75.83       75.61       75.37       75.11       74.83       74.53       74.21    
        73.87       73.52       73.14       72.75       72.34       71.91       71.46       71.00       70.51       70.00    
  23    85.00       84.83       84.66       84.47       84.27       84.06       83.84       83.60       83.36       83.09    
        82.81       82.52       82.21       81.88       81.52       81.15       80.74       80.30       79.82       79.29    
        78.71       78.06       77.34       76.59       76.00       75.97       76.09       76.21       76.27       76.26    
        76.21       76.10       75.96       75.78       75.58       75.34       75.09       74.81       74.51       74.20    
        73.86       73.51       73.13       72.74       72.33       71.91       71.46       70.99       70.51       70.00    
  24    85.00       84.83       84.66       84.47       84.27       84.06       83.84       83.60       83.35       83.09    
        82.81       82.51       82.20       81.86       81.50       81.12       80.71       80.25       79.76       79.20    
        78.56       77.81       76.90       75.78       74.61       75.14       75.64       75.95       76.11       76.16    
        76.14       76.05       75.92       75.75       75.55       75.33       75.08       74.80       74.51       74.19    
        73.86       73.50       73.13       72.74       72.33       71.90       71.46       70.99       70.51       70.00    
  25    85.00       84.83       84.66       84.47       84.27       84.06       83.84       83.60       83.35       83.08    
        82.80       82.51       82.19       81.86       81.50       81.11       80.70       80.24       79.73       79.16    
        78.50       77.70       76.62       74.94       71.32       74.28       75.36       75.84       76.05       76.13    
        76.11       76.03       75.91       75.74       75.55       75.32       75.07       74.80       74.50       74.19    
        73.85       73.50       73.13       72.74       72.33       71.90       71.46       70.99       70.51       70.00    
  26    85.00       84.83       84.66       84.47       84.27       84.06       83.84       83.60       83.35       83.09    
        82.81       82.51       82.20       81.86       81.51       81.12       80.71       80.26       79.76       79.20    
        78.56       77.81       76.90       75.78       74.61       75.14       75.64       75.96       76.12       76.17    
        76.14       76.05       75.92       75.75       75.56       75.33       75.08       74.80       74.51       74.19    
        73.86       73.50       73.13       72.74       72.33       71.91       71.46       70.99       70.51       70.00    
  27    85.00       84.83       84.66       84.47       84.27       84.06       83.84       83.61       83.36       83.09    
        82.82       82.52       82.21       81.88       81.53       81.15       80.74       80.30       79.82       79.30    
        78.71       78.06       77.34       76.60       76.01       75.97       76.10       76.21       76.27       76.27    
        76.21       76.11       75.96       75.78       75.58       75.35       75.09       74.81       74.52       74.20    
        73.86       73.51       73.14       72.75       72.34       71.91       71.46       70.99       70.51       70.00    
  28    85.00       84.84       84.66       84.47       84.28       84.07       83.85       83.61       83.37       83.11    
        82.83       82.54       82.23       81.91       81.56       81.19       80.80       80.37       79.92       79.43    
        78.90       78.34       77.77       77.22       76.80       76.60       76.54       76.51       76.48       76.41    
        76.31       76.18       76.02       75.83       75.62       75.38       75.12       74.84       74.53       74.21    
        73.88       73.52       73.14       72.75       72.34       71.91       71.46       71.00       70.51       70.00    
  29    85.00       84.84       84.66       84.48       84.28       84.07       83.85       83.62       83.38       83.12    
        82.85       82.56       82.26       81.94       81.60       81.24       80.86       80.46       80.03       79.58    
        79.11       78.62       78.14       77.70       77.33       77.09       76.92       76.80       76.69       76.58    
        76.44       76.28       76.10       75.89       75.66       75.42       75.15       74.86       74.56       74.23    
        73.89       73.53       73.16       72.76       72.35       71.92       71.47       71.00       70.51       70.00    
  30    85.00       84.84       84.67       84.48       84.29       84.08       83.86       83.64       83.39       83.14    
        82.87       82.59       82.29       81.98       81.65       81.31       80.94       80.56       80.16       79.74    
        79.31       78.88       78.46       78.07       77.73       77.46       77.25       77.07       76.91       76.74    
        76.57       76.39       76.18       75.96       75.72       75.46       75.19       74.89       74.58       74.26    
        73.91       73.55       73.17       72.77       72.36       71.92       71.47       71.00       70.51       70.00    
  31    85.00       84.84       84.67       84.49       84.29       84.09       83.88       83.65       83.41       83.16    
        82.90       82.62       82.33       82.03       81.71       81.37       81.02       80.66       80.28       79.89    
        79.50       79.11       78.73       78.37       78.05       77.77       77.52       77.31       77.11       76.91    
        76.71       76.50       76.27       76.04       75.78       75.52       75.23       74.93       74.61       74.28    
        73.93       73.57       73.18       72.78       72.37       71.93       71.48       71.01       70.51       70.00    
  32    85.00       84.84       84.67       84.49       84.30       84.10       83.89       83.67       83.43       83.18    
        82.92       82.65       82.37       82.07       81.76       81.44       81.11       80.76       80.40       80.04    
        79.67       79.31       78.95       78.62       78.30       78.02       77.76       77.52       77.29       77.06    
        76.84       76.61       76.37       76.11       75.85       75.57       75.28       74.97       74.65       74.31    
        73.96       73.59       73.20       72.80       72.38       71.94       71.49       71.01       70.52       70.00    
  33    85.00       84.84       84.68       84.50       84.31       84.11       83.90       83.68       83.45       83.21    
        82.95       82.69       82.41       82.12       81.82       81.51       81.19       80.86       80.52       80.17    
        79.83       79.48       79.15       78.82       78.52       78.23       77.96       77.70       77.45       77.21    
        76.96       76.71       76.46       76.19       75.92       75.63       75.33       75.01       74.68       74.34    
        73.98       73.61       73.22       72.81       72.39       71.95       71.49       71.02       70.52       70.00    
  34    85.00       84.85       84.68       84.51       84.32       84.12       83.92       83.70       83.47       83.23    
        82.98       82.72       82.45       82.17       81.88       81.58       81.27       80.95       80.63       80.30    
        79.97       79.64       79.32       79.00       78.70       78.41       78.13       77.86       77.60       77.34    
        77.08       76.82       76.55       76.27       75.98       75.69       75.38       75.06       74.72       74.37    
        74.01       73.63       73.24       72.83       72.40       71.96       71.50       71.02       70.52       70.00    
  35    85.00       84.85       84.69       84.51       84.33       84.14       83.93       83.72       83.49       83.26    
        83.02       82.76       82.50       82.22       81.94       81.65       81.35       81.04       80.73       80.41    
        80.09       79.77       79.46       79.15       78.85       78.56       78.28       78.00       77.73       77.46    
        77.19       76.91       76.63       76.34       76.05       75.74       75.43       75.10       74.76       74.40    
        74.04       73.65       73.26       72.85       72.42       71.97       71.51       71.03       70.52       70.00    
  36    85.00       84.85       84.69       84.52       84.34       84.15       83.95       83.74       83.52       83.29    
        83.05       82.80       82.54       82.27       81.99       81.71       81.42       81.12       80.82       80.51    
        80.20       79.89       79.59       79.29       78.99       78.70       78.41       78.13       77.85       77.57    
        77.29       77.00       76.71       76.42       76.11       75.80       75.47       75.14       74.79       74.44    
        74.06       73.68       73.28       72.86       72.43       71.98       71.52       71.03       70.53       70.00    
  37    85.00       84.85       84.69       84.53       84.35       84.16       83.96       83.75       83.54       83.31    
        83.07       82.83       82.58       82.31       82.04       81.77       81.48       81.19       80.90       80.60    
        80.30       80.00       79.70       79.40       79.11       78.81       78.52       78.24       77.95       77.66    
        77.37       77.08       76.78       76.48       76.17       75.85       75.52       75.18       74.83       74.47    
        74.09       73.70       73.30       72.88       72.44       71.99       71.52       71.04       70.53       70.00    
  38    85.00       84.85       84.70       84.53       84.36       84.17       83.98       83.77       83.56       83.33    
        83.10       82.86       82.61       82.36       82.09       81.82       81.54       81.26       80.97       80.68    
        80.39       80.09       79.80       79.50       79.21       78.92       78.63       78.33       78.04       77.75    
        77.46       77.16       76.85       76.54       76.23       75.90       75.57       75.22       74.86       74.50    
        74.12       73.72       73.32       72.89       72.46       72.00       71.53       71.04       70.53       70.00    
  39    85.00       84.86       84.70       84.54       84.37       84.18       83.99       83.79       83.58       83.36    
        83.13       82.89       82.65       82.40       82.14       81.87       81.60       81.32       81.04       80.76    
        80.47       80.18       79.88       79.59       79.30       79.01       78.71       78.42       78.12       77.83    
        77.53       77.22       76.91       76.60       76.28       75.95       75.61       75.26       74.90       74.53    
        74.14       73.75       73.34       72.91       72.47       72.01       71.54       71.05       70.53       70.00    
  40    85.00       84.86       84.71       84.55       84.37       84.19       84.00       83.80       83.60       83.38    
        83.15       82.92       82.68       82.43       82.18       81.92       81.65       81.38       81.10       80.82    
        80.54       80.25       79.96       79.67       79.38       79.08       78.79       78.50       78.20       77.90    
        77.59       77.28       76.97       76.65       76.32       75.99       75.64       75.29       74.93       74.55    
        74.17       73.77       73.35       72.93       72.48       72.02       71.55       71.05       70.54       70.00    
  41    85.00       84.86       84.71       84.55       84.38       84.20       84.02       83.82       83.61       83.40    
        83.18       82.95       82.71       82.47       82.22       81.96       81.70       81.43       81.15       80.88    
        80.60       80.31       80.03       79.74       79.45       79.15       78.86       78.56       78.26       77.96    
        77.65       77.34       77.02       76.70       76.37       76.03       75.68       75.32       74.96       74.58    
        74.19       73.79       73.37       72.94       72.49       72.03       71.55       71.06       70.54       70.00    
  42    85.00       84.86       84.71       84.56       84.39       84.21       84.03       83.83       83.63       83.42    
        83.20       82.97       82.74       82.50       82.25       82.00       81.74       81.47       81.20       80.93    
        80.65       80.37       80.08       79.80       79.51       79.21       78.92       78.62       78.32       78.01    
        77.70       77.39       77.07       76.74       76.40       76.06       75.71       75.35       74.98       74.60    
        74.21       73.80       73.38       72.95       72.50       72.04       71.56       71.06       70.54       70.00    
  43    85.00       84.86       84.72       84.56       84.40       84.22       84.04       83.84       83.64       83.43    
        83.22       82.99       82.76       82.52       82.28       82.03       81.77       81.51       81.24       80.97    
        80.69       80.42       80.13       79.85       79.56       79.26       78.97       78.67       78.36       78.06    
        77.75       77.43       77.10       76.77       76.44       76.09       75.74       75.38       75.00       74.62    
        74.23       73.82       73.40       72.96       72.51       72.05       71.57       71.06       70.54       70.00    
  44    85.00       84.87       84.72       84.57       84.40       84.23       84.05       83.86       83.66       83.45    
        83.23       83.01       82.78       82.55       82.30       82.06       81.80       81.54       81.28       81.01    
        80.73       80.46       80.17       79.89       79.60       79.31       79.01       78.71       78.41       78.10    
        77.78       77.46       77.14       76.81       76.47       76.12       75.76       75.40       75.02       74.64    
        74.24       73.83       73.41       72.97       72.52       72.05       71.57       71.07       70.54       70.00    
  45    85.00       84.87       84.72       84.57       84.41       84.23       84.05       83.86       83.67       83.46    
        83.25       83.03       82.80       82.57       82.33       82.08       81.83       81.57       81.31       81.04    
        80.77       80.49       80.21       79.92       79.64       79.34       79.05       78.75       78.44       78.13    
        77.82       77.49       77.17       76.83       76.49       76.14       75.79       75.42       75.04       74.65    
        74.26       73.84       73.42       72.98       72.53       72.06       71.57       71.07       70.55       70.00    
  46    85.00       84.87       84.72       84.57       84.41       84.24       84.06       83.87       83.68       83.47    
        83.26       83.04       82.82       82.58       82.34       82.10       81.85       81.59       81.33       81.07    
        80.79       80.52       80.24       79.95       79.67       79.37       79.08       78.78       78.47       78.16    
        77.84       77.52       77.19       76.86       76.51       76.16       75.80       75.43       75.06       74.67    
        74.27       73.86       73.43       72.99       72.54       72.07       71.58       71.07       70.55       70.00    
  47    85.00       84.87       84.73       84.57       84.41       84.24       84.07       83.88       83.68       83.48    
        83.27       83.05       82.83       82.60       82.36       82.12       81.87       81.61       81.35       81.09    
        80.82       80.54       80.26       79.98       79.69       79.40       79.10       78.80       78.49       78.18    
        77.86       77.54       77.21       76.87       76.53       76.18       75.82       75.45       75.07       74.68    
        74.28       73.86       73.44       73.00       72.54       72.07       71.58       71.07       70.55       70.00    
  48    85.00       84.87       84.73       84.58       84.42       84.25       84.07       83.88       83.69       83.49    
        83.28       83.06       82.84       82.61       82.37       82.13       81.88       81.62       81.37       81.10    
        80.83       80.56       80.28       79.99       79.71       79.41       79.12       78.82       78.51       78.20    
        77.88       77.55       77.22       76.89       76.54       76.19       75.83       75.46       75.08       74.69    
        74.28       73.87       73.44       73.00       72.54       72.07       71.58       71.08       70.55       70.00    
  49    85.00       84.87       84.73       84.58       84.42       84.25       84.07       83.89       83.69       83.49    
        83.28       83.07       82.84       82.61       82.38       82.14       81.89       81.63       81.37       81.11    
        80.84       80.57       80.29       80.01       79.72       79.43       79.13       78.83       78.52       78.21    
        77.89       77.56       77.23       76.90       76.55       76.20       75.83       75.46       75.08       74.69    
        74.29       73.87       73.45       73.00       72.55       72.08       71.59       71.08       70.55       70.00    
  50    85.00       84.87       84.73       84.58       84.42       84.25       84.07       83.89       83.69       83.49    
        83.29       83.07       82.85       82.62       82.38       82.14       81.89       81.64       81.38       81.12    
        80.85       80.57       80.29       80.01       79.72       79.43       79.13       78.83       78.52       78.21    
        77.89       77.57       77.24       76.90       76.55       76.20       75.84       75.47       75.09       74.69    
        74.29       73.88       73.45       73.01       72.55       72.08       71.59       71.08       70.55       70.00    
1
              HEAD IN LAYER   2 AT END OF TIME STEP   1 IN STRESS PERIOD    1
  ---------------------------------------------------------------------------

            1           2           3           4           5           6           7           8           9          10
           11          12          13          14          15          16          17          18          19          20
           21          22          23          24          25          26          27          28          29          30
           31          32          33          34          35          36          37          38          39          40
           41          42          43          44          45          46          47          48          49          50
 ........................................................................................................................
   1    85.00       84.81       84.61       84.41       84.20       83.99       83.77       83.55       83.32       83.09    
        82.85       82.61       82.36       82.11       81.85       81.59       81.33       81.06       80.79       80.51    
        80.23       79.95       79.66       79.37       79.07       78.78       78.47       78.17       77.86       77.55    
        77.23       76.91       76.58       76.25       75.91       75.57       75.22       74.87       74.51       74.14    
        73.76       73.38       72.99       72.59       72.18       71.77       71.34       70.90       70.46       70.00    
   2    85.00       84.81       84.61       84.41       84.20       83.99       83.77       83.55       83.32       83.08    
        82.85       82.60       82.36       82.11       81.85       81.59       81.32       81.05       80.78       80.51    
        80.23       79.94       79.65       79.36       79.07       78.77       78.47       78.17       77.86       77.54    
        77.23       76.90       76.58       76.25       75.91       75.57       75.22       74.87       74.50       74.14    
        73.76       73.38       72.99       72.59       72.18       71.77       71.34       70.90       70.46       70.00    
   3    85.00       84.81       84.61       84.41       84.20       83.99       83.77       83.54       83.32       83.08    
        82.84       82.60       82.35       82.10       81.84       81.58       81.32       81.05       80.78       80.50    
        80.22       79.93       79.65       79.36       79.06       78.76       78.46       78.16       77.85       77.54    
        77.22       76.90       76.57       76.24       75.90       75.56       75.21       74.86       74.50       74.13    
        73.76       73.38       72.99       72.59       72.18       71.76       71.34       70.90       70.46       70.00    
   4    85.00       84.81       84.61       84.41       84.20       83.98       83.76       83.54       83.31       83.08    
        82.84       82.60       82.35       82.09       81.84       81.57       81.31       81.04       80.77       80.49    
        80.21       79.92       79.64       79.34       79.05       78.75       78.45       78.15       77.84       77.52    
        77.21       76.89       76.56       76.23       75.90       75.55       75.21       74.85       74.49       74.13    
        73.75       73.37       72.98       72.58       72.18       71.76       71.34       70.90       70.46       70.00    
   5    85.00       84.81       84.61       84.40       84.19       83.98       83.76       83.54       83.31       83.07    
        82.83       82.59       82.34       82.08       81.83       81.56       81.30       81.03       80.75       80.47    
        80.19       79.91       79.62       79.33       79.03       78.74       78.43       78.13       77.82       77.51    
        77.19       76.87       76.55       76.22       75.88       75.54       75.20       74.85       74.49       74.12    
        73.75       73.37       72.98       72.58       72.18       71.76       71.34       70.90       70.46       70.00    
   6    85.00       84.81       84.61       84.40       84.19       83.98       83.76       83.53       83.30       83.06    
        82.82       82.58       82.33       82.07       81.81       81.55       81.28       81.01       80.74       80.46    
        80.17       79.89       79.60       79.31       79.01       78.71       78.41       78.11       77.80       77.49    
        77.18       76.86       76.53       76.20       75.87       75.53       75.19       74.83       74.48       74.11    
        73.74       73.36       72.97       72.58       72.17       71.76       71.33       70.90       70.46       70.00    
   7    85.00       84.80       84.60       84.40       84.19       83.97       83.75       83.52       83.29       83.06    
        82.81       82.57       82.32       82.06       81.80       81.53       81.26       80.99       80.71       80.43    
        80.15       79.86       79.58       79.28       78.99       78.69       78.39       78.09       77.78       77.47    
        77.15       76.84       76.51       76.19       75.85       75.52       75.17       74.82       74.47       74.10    
        73.73       73.35       72.97       72.57       72.17       71.75       71.33       70.90       70.45       70.00    
   8    85.00       84.80       84.60       84.40       84.18       83.97       83.74       83.52       83.28       83.05    
        82.80       82.55       82.30       82.04       81.78       81.51       81.24       80.97       80.69       80.41    
        80.12       79.84       79.55       79.25       78.96       78.66       78.36       78.06       77.75       77.44    
        77.13       76.81       76.49       76.16       75.83       75.50       75.16       74.81       74.45       74.09    
        73.72       73.34       72.96       72.56       72.16       71.75       71.33       70.90       70.45       70.00    
   9    85.00       84.80       84.60       84.39       84.18       83.96       83.74       83.51       83.27       83.03    
        82.79       82.54       82.29       82.03       81.76       81.49       81.22       80.94       80.66       80.38    
        80.09       79.80       79.51       79.22       78.92       78.63       78.32       78.02       77.72       77.41    
        77.10       76.78       76.46       76.14       75.81       75.48       75.14       74.79       74.44       74.08    
        73.71       73.33       72.95       72.56       72.15       71.74       71.32       70.89       70.45       70.00    
  10    85.00       84.80       84.60       84.39       84.18       83.96       83.73       83.50       83.26       83.02    
        82.78       82.52       82.27       82.01       81.74       81.47       81.19       80.91       80.63       80.35    
        80.06       79.77       79.47       79.18       78.88       78.58       78.29       77.98       77.68       77.37    
        77.06       76.75       76.43       76.11       75.79       75.45       75.12       74.77       74.42       74.06    
        73.70       73.32       72.94       72.55       72.15       71.74       71.32       70.89       70.45       70.00    
  11    85.00       84.80       84.60       84.39       84.17       83.95       83.72       83.49       83.25       83.01    
        82.76       82.51       82.25       81.98       81.71       81.44       81.16       80.88       80.60       80.31    
        80.02       79.72       79.43       79.13       78.84       78.54       78.24       77.94       77.64       77.33    
        77.03       76.72       76.40       76.08       75.76       75.43       75.09       74.75       74.40       74.05    
        73.68       73.31       72.93       72.54       72.14       71.73       71.31       70.89       70.45       70.00    
  12    85.00       84.80       84.59       84.38       84.16       83.94       83.71       83.48       83.24       83.00    
        82.74       82.49       82.23       81.96       81.69       81.41       81.13       80.84       80.56       80.26    
        79.97       79.68       79.38       79.08       78.78       78.49       78.19       77.89       77.59       77.29    
        76.98       76.68       76.36       76.05       75.73       75.40       75.07       74.73       74.38       74.03    
        73.67       73.30       72.92       72.53       72.13       71.73       71.31       70.88       70.45       70.00    
  13    85.00       84.80       84.59       84.38       84.16       83.93       83.70       83.47       83.23       82.98    
        82.73       82.47       82.20       81.93       81.66       81.38       81.09       80.80       80.51       80.22    
        79.92       79.62       79.32       79.02       78.72       78.43       78.13       77.83       77.54       77.24    
        76.94       76.63       76.32       76.01       75.70       75.37       75.04       74.71       74.36       74.01    
        73.65       73.28       72.91       72.52       72.12       71.72       71.31       70.88       70.45       70.00    
  14    85.00       84.80       84.59       84.37       84.15       83.93       83.70       83.46       83.21       82.96    
        82.71       82.45       82.18       81.91       81.63       81.34       81.05       80.76       80.46       80.16    
        79.86       79.56       79.26       78.96       78.66       78.36       78.06       77.77       77.48       77.18    
        76.88       76.58       76.28       75.97       75.66       75.34       75.01       74.68       74.34       73.99    
        73.63       73.27       72.89       72.51       72.12       71.71       71.30       70.88       70.44       70.00    
  15    85.00       84.80       84.58       84.37       84.15       83.92       83.69       83.45       83.20       82.95    
        82.69       82.43       82.16       81.88       81.59       81.31       81.01       80.71       80.41       80.11    
        79.80       79.49       79.19       78.88       78.58       78.28       77.99       77.70       77.41       77.12    
        76.83       76.53       76.24       75.93       75.62       75.31       74.99       74.66       74.32       73.97    
        73.62       73.25       72.88       72.50       72.11       71.71       71.30       70.87       70.44       70.00    
  16    85.00       84.79       84.58       84.36       84.14       83.91       83.68       83.44       83.19       82.93    
        82.67       82.40       82.13       81.85       81.56       81.27       80.97       80.66       80.35       80.04    
        79.73       79.41       79.10       78.80       78.49       78.20       77.91       77.62       77.33       77.05    
        76.77       76.48       76.19       75.89       75.59       75.28       74.96       74.63       74.30       73.95    
        73.60       73.24       72.87       72.49       72.10       71.70       71.29       70.87       70.44       70.00    
  17    85.00       84.79       84.58       84.36       84.14       83.91       83.67       83.43       83.17       82.92    
        82.65       82.38       82.10       81.82       81.53       81.23       80.92       80.61       80.29       79.97    
        79.65       79.33       79.01       78.70       78.39       78.10       77.81       77.53       77.25       76.98    
        76.70       76.42       76.14       75.84       75.55       75.24       74.93       74.61       74.27       73.93    
        73.59       73.23       72.86       72.48       72.09       71.69       71.29       70.87       70.44       70.00    
  18    85.00       84.79       84.58       84.36       84.13       83.90       83.66       83.41       83.16       82.90    
        82.64       82.36       82.08       81.79       81.49       81.19       80.87       80.55       80.23       79.90    
        79.56       79.23       78.90       78.58       78.27       77.98       77.70       77.43       77.16       76.90    
        76.63       76.36       76.08       75.80       75.51       75.21       74.90       74.58       74.25       73.92    
        73.57       73.21       72.85       72.47       72.09       71.69       71.28       70.87       70.44       70.00    
  19    85.00       84.79       84.57       84.35       84.13       83.89       83.65       83.41       83.15       82.89    
        82.62       82.34       82.06       81.76       81.46       81.15       80.83       80.50       80.16       79.82    
        79.47       79.12       78.78       78.45       78.14       77.84       77.57       77.31       77.06       76.81    
        76.56       76.30       76.03       75.76       75.47       75.18       74.87       74.56       74.23       73.90    
        73.56       73.20       72.84       72.46       72.08       71.68       71.28       70.86       70.44       70.00    
  20    85.00       84.79       84.57       84.35       84.12       83.89       83.65       83.40       83.14       82.88    
        82.60       82.32       82.04       81.74       81.43       81.11       80.78       80.44       80.09       79.73    
        79.37       79.00       78.64       78.29       77.97       77.68       77.43       77.19       76.95       76.72    
        76.48       76.24       75.98       75.71       75.43       75.15       74.85       74.54       74.22       73.88    
        73.54       73.19       72.83       72.46       72.07       71.68       71.28       70.86       70.44       70.00    
  21    85.00       84.79       84.57       84.35       84.12       83.88       83.64       83.39       83.13       82.87    
        82.59       82.31       82.02       81.71       81.40       81.07       80.74       80.39       80.02       79.65    
        79.26       78.86       78.47       78.09       77.76       77.49       77.25       77.04       76.84       76.63    
        76.41       76.18       75.93       75.67       75.40       75.12       74.82       74.52       74.20       73.87    
        73.53       73.18       72.82       72.45       72.07       71.68       71.27       70.86       70.43       70.00    
  22    85.00       84.79       84.57       84.35       84.12       83.88       83.63       83.38       83.12       82.86    
        82.58       82.30       82.00       81.69       81.38       81.04       80.70       80.34       79.96       79.56    
        79.15       78.72       78.27       77.85       77.48       77.24       77.05       76.89       76.72       76.54    
        76.34       76.12       75.89       75.64       75.38       75.10       74.81       74.50       74.19       73.86    
        73.52       73.17       72.81       72.44       72.06       71.67       71.27       70.86       70.43       70.00    
  23    85.00       84.79       84.57       84.34       84.11       83.88       83.63       83.38       83.12       82.85    
        82.57       82.29       81.99       81.68       81.36       81.02       80.67       80.30       79.91       79.49    
        79.05       78.57       78.05       77.53       77.08       76.91       76.83       76.74       76.62       76.47    
        76.29       76.08       75.86       75.62       75.36       75.08       74.79       74.49       74.18       73.85    
        73.52       73.17       72.81       72.44       72.06       71.67       71.27       70.86       70.43       70.00    
  24    85.00       84.79       84.57       84.34       84.11       83.87       83.63       83.38       83.12       82.85    
        82.57       82.28       81.98       81.67       81.35       81.01       80.65       80.28       79.88       79.44    
        78.97       78.44       77.83       77.11       76.38       76.49       76.60       76.60       76.54       76.41    
        76.25       76.06       75.84       75.60       75.34       75.07       74.78       74.48       74.17       73.85    
        73.51       73.17       72.81       72.44       72.06       71.67       71.27       70.86       70.43       70.00    
  25    85.00       84.79       84.57       84.34       84.11       83.87       83.63       83.38       83.12       82.85    
        82.57       82.28       81.98       81.67       81.34       81.00       80.65       80.27       79.86       79.43    
        78.94       78.38       77.69       76.69       74.75       76.06       76.45       76.54       76.50       76.39    
        76.24       76.05       75.83       75.59       75.34       75.07       74.78       74.48       74.17       73.85    
        73.51       73.16       72.81       72.44       72.06       71.67       71.27       70.86       70.43       70.00    
  26    85.00       84.79       84.57       84.34       84.11       83.87       83.63       83.38       83.12       82.85    
        82.57       82.28       81.98       81.67       81.35       81.01       80.65       80.28       79.88       79.44    
        78.97       78.44       77.83       77.12       76.38       76.49       76.60       76.61       76.54       76.41    
        76.25       76.06       75.84       75.60       75.34       75.07       74.79       74.49       74.17       73.85    
        73.51       73.17       72.81       72.44       72.06       71.67       71.27       70.86       70.43       70.00    
  27    85.00       84.79       84.57       84.34       84.11       83.88       83.63       83.38       83.12       82.85    
        82.57       82.29       81.99       81.68       81.36       81.02       80.67       80.30       79.91       79.50    
        79.05       78.57       78.06       77.53       77.08       76.91       76.83       76.74       76.62       76.47    
        76.29       76.09       75.86       75.62       75.36       75.08       74.80       74.49       74.18       73.85    
        73.52       73.17       72.81       72.44       72.06       71.67       71.27       70.86       70.43       70.00    
  28    85.00       84.79       84.57       84.35       84.12       83.88       83.64       83.39       83.13       82.86    
        82.58       82.30       82.00       81.70       81.38       81.05       80.70       80.34       79.97       79.57    
        79.15       78.72       78.28       77.85       77.49       77.24       77.06       76.90       76.73       76.55    
        76.35       76.13       75.89       75.64       75.38       75.10       74.81       74.51       74.19       73.86    
        73.53       73.18       72.82       72.45       72.06       71.67       71.27       70.86       70.43       70.00    
  29    85.00       84.79       84.57       84.35       84.12       83.88       83.64       83.39       83.13       82.87    
        82.60       82.31       82.02       81.72       81.40       81.08       80.74       80.39       80.03       79.65    
        79.26       78.87       78.47       78.10       77.77       77.49       77.26       77.05       76.85       76.64    
        76.42       76.18       75.94       75.68       75.41       75.12       74.83       74.52       74.20       73.88    
        73.54       73.18       72.82       72.45       72.07       71.68       71.27       70.86       70.44       70.00    
  30    85.00       84.79       84.57       84.35       84.12       83.89       83.65       83.40       83.14       82.88    
        82.61       82.33       82.04       81.74       81.43       81.12       80.79       80.45       80.10       79.74    
        79.37       79.01       78.64       78.30       77.98       77.69       77.43       77.19       76.96       76.73    
        76.49       76.24       75.99       75.72       75.44       75.15       74.85       74.54       74.22       73.89    
        73.55       73.19       72.83       72.46       72.07       71.68       71.28       70.86       70.44       70.00    
  31    85.00       84.79       84.58       84.35       84.13       83.90       83.66       83.41       83.16       82.89    
        82.62       82.35       82.06       81.77       81.47       81.15       80.83       80.50       80.17       79.82    
        79.48       79.13       78.79       78.46       78.15       77.85       77.58       77.32       77.07       76.82    
        76.57       76.31       76.04       75.76       75.48       75.18       74.88       74.56       74.24       73.91    
        73.56       73.21       72.84       72.47       72.08       71.69       71.28       70.86       70.44       70.00    
  32    85.00       84.79       84.58       84.36       84.13       83.90       83.66       83.42       83.17       82.91    
        82.64       82.37       82.09       81.80       81.50       81.20       80.88       80.56       80.24       79.91    
        79.57       79.24       78.91       78.59       78.29       77.99       77.71       77.44       77.17       76.91    
        76.64       76.37       76.09       75.81       75.52       75.22       74.91       74.59       74.26       73.92    
        73.58       73.22       72.85       72.48       72.09       71.69       71.28       70.87       70.44       70.00    
  33    85.00       84.79       84.58       84.36       84.14       83.91       83.67       83.43       83.18       82.92    
        82.66       82.39       82.11       81.83       81.54       81.24       80.93       80.62       80.30       79.98    
        79.66       79.34       79.02       78.71       78.40       78.11       77.82       77.54       77.26       76.99    
        76.71       76.43       76.15       75.86       75.56       75.25       74.94       74.61       74.28       73.94    
        73.59       73.23       72.86       72.49       72.10       71.70       71.29       70.87       70.44       70.00    
  34    85.00       84.79       84.58       84.37       84.14       83.92       83.68       83.44       83.19       82.94    
        82.68       82.41       82.14       81.86       81.57       81.28       80.98       80.67       80.37       80.05    
        79.74       79.43       79.12       78.81       78.51       78.21       77.92       77.63       77.35       77.06    
        76.78       76.49       76.20       75.90       75.60       75.29       74.97       74.64       74.31       73.96    
        73.61       73.25       72.88       72.50       72.10       71.70       71.29       70.87       70.44       70.00    
  35    85.00       84.80       84.59       84.37       84.15       83.92       83.69       83.45       83.21       82.96    
        82.70       82.44       82.17       81.89       81.61       81.32       81.02       80.73       80.42       80.12    
        79.81       79.51       79.20       78.90       78.60       78.30       78.01       77.71       77.42       77.13    
        76.84       76.55       76.25       75.95       75.64       75.32       75.00       74.67       74.33       73.98    
        73.63       73.26       72.89       72.51       72.11       71.71       71.30       70.88       70.44       70.00    
  36    85.00       84.80       84.59       84.38       84.16       83.93       83.70       83.47       83.22       82.97    
        82.72       82.46       82.19       81.92       81.64       81.36       81.07       80.78       80.48       80.18    
        79.88       79.58       79.27       78.97       78.67       78.38       78.08       77.79       77.49       77.20    
        76.90       76.60       76.30       75.99       75.68       75.36       75.03       74.69       74.35       74.00    
        73.64       73.28       72.90       72.52       72.12       71.72       71.30       70.88       70.45       70.00    
  37    85.00       84.80       84.59       84.38       84.16       83.94       83.71       83.48       83.24       82.99    
        82.74       82.48       82.22       81.95       81.67       81.39       81.11       80.82       80.53       80.23    
        79.94       79.64       79.34       79.04       78.74       78.45       78.15       77.85       77.55       77.26    
        76.95       76.65       76.34       76.03       75.71       75.39       75.06       74.72       74.37       74.02    
        73.66       73.29       72.91       72.53       72.13       71.73       71.31       70.88       70.45       70.00    
  38    85.00       84.80       84.60       84.39       84.17       83.95       83.72       83.49       83.25       83.01    
        82.76       82.50       82.24       81.97       81.70       81.43       81.15       80.86       80.57       80.28    
        79.99       79.70       79.40       79.10       78.81       78.51       78.21       77.91       77.61       77.31    
        77.00       76.70       76.38       76.07       75.75       75.42       75.08       74.74       74.40       74.04    
        73.68       73.31       72.93       72.54       72.14       71.73       71.31       70.89       70.45       70.00    
  39    85.00       84.80       84.60       84.39       84.18       83.96       83.73       83.50       83.26       83.02    
        82.77       82.52       82.26       82.00       81.73       81.46       81.18       80.90       80.62       80.33    
        80.04       79.75       79.45       79.16       78.86       78.56       78.26       77.96       77.66       77.36    
        77.05       76.74       76.42       76.10       75.78       75.45       75.11       74.77       74.42       74.06    
        73.69       73.32       72.94       72.55       72.15       71.74       71.32       70.89       70.45       70.00    
  40    85.00       84.80       84.60       84.39       84.18       83.96       83.74       83.51       83.28       83.04    
        82.79       82.54       82.28       82.02       81.76       81.49       81.21       80.94       80.65       80.37    
        80.08       79.79       79.50       79.20       78.91       78.61       78.31       78.01       77.70       77.40    
        77.09       76.77       76.46       76.13       75.81       75.47       75.14       74.79       74.44       74.08    
        73.71       73.33       72.95       72.56       72.16       71.74       71.32       70.89       70.45       70.00    
  41    85.00       84.80       84.60       84.40       84.19       83.97       83.75       83.52       83.29       83.05    
        82.81       82.56       82.30       82.04       81.78       81.51       81.24       80.97       80.69       80.40    
        80.12       79.83       79.54       79.25       78.95       78.65       78.35       78.05       77.74       77.44    
        77.12       76.81       76.49       76.16       75.83       75.50       75.16       74.81       74.46       74.09    
        73.72       73.35       72.96       72.57       72.16       71.75       71.33       70.90       70.45       70.00    
  42    85.00       84.81       84.61       84.40       84.19       83.98       83.75       83.53       83.30       83.06    
        82.82       82.57       82.32       82.06       81.80       81.54       81.27       80.99       80.72       80.44    
        80.15       79.87       79.58       79.28       78.99       78.69       78.39       78.09       77.78       77.47    
        77.16       76.84       76.52       76.19       75.86       75.52       75.18       74.83       74.47       74.11    
        73.74       73.36       72.97       72.57       72.17       71.76       71.33       70.90       70.46       70.00    
  43    85.00       84.81       84.61       84.40       84.20       83.98       83.76       83.54       83.31       83.07    
        82.83       82.59       82.34       82.08       81.82       81.56       81.29       81.02       80.74       80.46    
        80.18       79.90       79.61       79.31       79.02       78.72       78.42       78.12       77.81       77.50    
        77.18       76.87       76.54       76.21       75.88       75.54       75.20       74.84       74.49       74.12    
        73.75       73.37       72.98       72.58       72.18       71.76       71.34       70.90       70.46       70.00    
  44    85.00       84.81       84.61       84.41       84.20       83.99       83.77       83.54       83.32       83.08    
        82.84       82.60       82.35       82.10       81.84       81.58       81.31       81.04       80.77       80.49    
        80.21       79.92       79.63       79.34       79.05       78.75       78.45       78.14       77.84       77.52    
        77.21       76.89       76.56       76.23       75.90       75.56       75.21       74.86       74.50       74.13    
        73.76       73.38       72.99       72.59       72.18       71.77       71.34       70.90       70.46       70.00    
  45    85.00       84.81       84.61       84.41       84.20       83.99       83.77       83.55       83.32       83.09    
        82.85       82.61       82.36       82.11       81.85       81.59       81.33       81.06       80.79       80.51    
        80.23       79.94       79.66       79.37       79.07       78.77       78.47       78.17       77.86       77.55    
        77.23       76.91       76.58       76.25       75.92       75.57       75.23       74.87       74.51       74.14    
        73.77       73.39       72.99       72.60       72.19       71.77       71.34       70.91       70.46       70.00    
  46    85.00       84.81       84.61       84.41       84.21       83.99       83.78       83.56       83.33       83.10    
        82.86       82.62       82.37       82.12       81.87       81.61       81.34       81.07       80.80       80.53    
        80.25       79.96       79.67       79.38       79.09       78.79       78.49       78.19       77.88       77.56    
        77.25       76.92       76.60       76.27       75.93       75.59       75.24       74.88       74.52       74.15    
        73.78       73.39       73.00       72.60       72.19       71.77       71.35       70.91       70.46       70.00    
  47    85.00       84.81       84.61       84.41       84.21       84.00       83.78       83.56       83.33       83.10    
        82.87       82.63       82.38       82.13       81.88       81.62       81.35       81.09       80.81       80.54    
        80.26       79.98       79.69       79.40       79.10       78.81       78.51       78.20       77.89       77.58    
        77.26       76.94       76.61       76.28       75.94       75.60       75.25       74.89       74.53       74.16    
        73.78       73.40       73.01       72.60       72.19       71.78       71.35       70.91       70.46       70.00    
  48    85.00       84.81       84.62       84.42       84.21       84.00       83.78       83.56       83.34       83.11    
        82.87       82.63       82.39       82.14       81.88       81.62       81.36       81.09       80.82       80.55    
        80.27       79.99       79.70       79.41       79.12       78.82       78.52       78.21       77.90       77.59    
        77.27       76.95       76.62       76.29       75.95       75.60       75.25       74.90       74.53       74.16    
        73.79       73.40       73.01       72.61       72.20       71.78       71.35       70.91       70.46       70.00    
  49    85.00       84.81       84.62       84.42       84.21       84.00       83.79       83.57       83.34       83.11    
        82.88       82.64       82.39       82.14       81.89       81.63       81.37       81.10       80.83       80.55    
        80.28       79.99       79.71       79.42       79.12       78.83       78.52       78.22       77.91       77.60    
        77.28       76.95       76.63       76.29       75.95       75.61       75.26       74.90       74.54       74.17    
        73.79       73.40       73.01       72.61       72.20       71.78       71.35       70.91       70.46       70.00    
  50    85.00       84.81       84.62       84.42       84.21       84.00       83.79       83.57       83.34       83.11    
        82.88       82.64       82.39       82.14       81.89       81.63       81.37       81.10       80.83       80.56    
        80.28       80.00       79.71       79.42       79.13       78.83       78.53       78.22       77.91       77.60    
        77.28       76.96       76.63       76.29       75.96       75.61       75.26       74.90       74.54       74.17    
        73.79       73.41       73.01       72.61       72.20       71.78       71.35       70.91       70.46       70.00    
1
              HEAD IN LAYER   3 AT END OF TIME STEP   1 IN STRESS PERIOD    1
  ---------------------------------------------------------------------------

            1           2           3           4           5           6           7           8           9          10
           11          12          13          14          15          16          17          18          19          20
           21          22          23          24          25          26          27          28          29          30
           31          32          33          34          35          36          37          38          39          40
           41          42          43          44          45          46          47          48          49          50
 ........................................................................................................................
   1    85.00       84.75       84.50       84.25       84.00       83.74       83.49       83.23       82.97       82.71    
        82.45       82.18       81.92       81.65       81.37       81.10       80.82       80.54       80.26       79.97    
        79.68       79.39       79.09       78.80       78.50       78.19       77.89       77.58       77.27       76.95    
        76.64       76.31       75.99       75.66       75.33       75.00       74.66       74.32       73.97       73.63    
        73.27       72.92       72.56       72.20       71.84       71.48       71.11       70.74       70.37       70.00    
   2    85.00       84.75       84.50       84.25       84.00       83.74       83.49       83.23       82.97       82.71    
        82.45       82.18       81.92       81.65       81.37       81.10       80.82       80.54       80.25       79.97    
        79.68       79.39       79.09       78.80       78.50       78.19       77.89       77.58       77.27       76.95    
        76.63       76.31       75.99       75.66       75.33       75.00       74.66       74.32       73.97       73.62    
        73.27       72.92       72.56       72.20       71.84       71.48       71.11       70.74       70.37       70.00    
   3    85.00       84.75       84.50       84.25       84.00       83.74       83.49       83.23       82.97       82.71    
        82.45       82.18       81.91       81.64       81.37       81.09       80.82       80.54       80.25       79.96    
        79.68       79.38       79.09       78.79       78.49       78.19       77.88       77.57       77.26       76.95    
        76.63       76.31       75.99       75.66       75.33       74.99       74.66       74.31       73.97       73.62    
        73.27       72.92       72.56       72.20       71.84       71.47       71.11       70.74       70.37       70.00    
   4    85.00       84.75       84.50       84.25       84.00       83.74       83.49       83.23       82.97       82.71    
        82.44       82.18       81.91       81.64       81.37       81.09       80.81       80.53       80.25       79.96    
        79.67       79.38       79.08       78.79       78.49       78.18       77.88       77.57       77.26       76.94    
        76.63       76.30       75.98       75.65       75.32       74.99       74.65       74.31       73.97       73.62    
        73.27       72.92       72.56       72.20       71.84       71.47       71.11       70.74       70.37       70.00    
   5    85.00       84.75       84.50       84.25       83.99       83.74       83.48       83.23       82.97       82.71    
        82.44       82.18       81.91       81.64       81.36       81.09       80.81       80.53       80.24       79.95    
        79.66       79.37       79.08       78.78       78.48       78.18       77.87       77.56       77.25       76.94    
        76.62       76.30       75.98       75.65       75.32       74.98       74.65       74.31       73.96       73.62    
        73.27       72.91       72.56       72.20       71.84       71.47       71.11       70.74       70.37       70.00    
   6    85.00       84.75       84.50       84.25       83.99       83.74       83.48       83.22       82.96       82.70    
        82.44       82.17       81.90       81.63       81.36       81.08       80.80       80.52       80.23       79.95    
        79.66       79.36       79.07       78.77       78.47       78.17       77.86       77.55       77.24       76.93    
        76.61       76.29       75.97       75.64       75.31       74.98       74.64       74.30       73.96       73.61    
        73.26       72.91       72.55       72.20       71.83       71.47       71.11       70.74       70.37       70.00    
   7    85.00       84.75       84.50       84.24       83.99       83.74       83.48       83.22       82.96       82.70    
        82.43       82.17       81.90       81.62       81.35       81.07       80.79       80.51       80.22       79.94    
        79.65       79.35       79.06       78.76       78.46       78.16       77.85       77.54       77.23       76.92    
        76.60       76.28       75.96       75.63       75.30       74.97       74.64       74.30       73.95       73.61    
        73.26       72.91       72.55       72.19       71.83       71.47       71.10       70.74       70.37       70.00    
   8    85.00       84.75       84.50       84.24       83.99       83.73       83.48       83.22       82.96       82.69    
        82.43       82.16       81.89       81.62       81.34       81.06       80.78       80.50       80.21       79.93    
        79.64       79.34       79.05       78.75       78.45       78.15       77.84       77.53       77.22       76.91    
        76.59       76.27       75.95       75.63       75.30       74.96       74.63       74.29       73.95       73.60    
        73.25       72.90       72.55       72.19       71.83       71.47       71.10       70.74       70.37       70.00    
   9    85.00       84.75       84.49       84.24       83.99       83.73       83.47       83.21       82.95       82.69    
        82.42       82.15       81.88       81.61       81.33       81.05       80.77       80.49       80.20       79.91    
        79.62       79.33       79.03       78.74       78.44       78.13       77.83       77.52       77.21       76.90    
[...]
        73.17       72.83       72.49       72.14       71.79       71.43       71.08       70.72       70.36       70.00    
  23    85.00       84.74       84.48       84.22       83.95       83.69       83.42       83.15       82.88       82.61    
        82.33       82.05       81.77       81.48       81.19       80.90       80.60       80.30       80.00       79.69    
        79.39       79.08       78.77       78.46       78.16       77.85       77.56       77.26       76.97       76.67    
        76.37       76.06       75.76       75.45       75.14       74.82       74.50       74.17       73.84       73.51    
        73.17       72.83       72.49       72.14       71.79       71.43       71.08       70.72       70.36       70.00    
  24    85.00       84.74       84.48       84.22       83.95       83.69       83.42       83.15       82.88       82.61    
        82.33       82.05       81.77       81.48       81.19       80.90       80.60       80.30       79.99       79.69    
        79.38       79.07       78.76       78.45       78.14       77.84       77.55       77.25       76.96       76.66    
        76.36       76.06       75.75       75.45       75.13       74.82       74.49       74.17       73.84       73.51    
        73.17       72.83       72.48       72.14       71.79       71.43       71.08       70.72       70.36       70.00    
  25    85.00       84.74       84.48       84.22       83.95       83.69       83.42       83.15       82.88       82.61    
        82.33       82.05       81.77       81.48       81.19       80.89       80.60       80.30       79.99       79.69    
        79.38       79.07       78.75       78.44       78.13       77.84       77.54       77.25       76.96       76.66    
        76.36       76.06       75.75       75.44       75.13       74.82       74.49       74.17       73.84       73.51    
        73.17       72.83       72.48       72.14       71.79       71.43       71.08       70.72       70.36       70.00    
  26    85.00       84.74       84.48       84.22       83.95       83.69       83.42       83.15       82.88       82.61    
        82.33       82.05       81.77       81.48       81.19       80.90       80.60       80.30       80.00       79.69    
        79.38       79.07       78.76       78.45       78.14       77.84       77.55       77.25       76.96       76.66    
        76.36       76.06       75.76       75.45       75.13       74.82       74.50       74.17       73.84       73.51    
        73.17       72.83       72.49       72.14       71.79       71.43       71.08       70.72       70.36       70.00    
  27    85.00       84.74       84.48       84.22       83.96       83.69       83.42       83.16       82.88       82.61    
        82.33       82.05       81.77       81.48       81.19       80.90       80.60       80.30       80.00       79.70    
        79.39       79.08       78.77       78.46       78.16       77.86       77.56       77.26       76.97       76.67    
        76.37       76.07       75.76       75.45       75.14       74.82       74.50       74.17       73.84       73.51    
        73.17       72.83       72.49       72.14       71.79       71.43       71.08       70.72       70.36       70.00    
  28    85.00       84.74       84.48       84.22       83.96       83.69       83.43       83.16       82.89       82.61    
        82.34       82.06       81.77       81.49       81.20       80.91       80.61       80.31       80.01       79.71    
        79.40       79.09       78.79       78.48       78.18       77.87       77.58       77.28       76.98       76.68    
        76.38       76.08       75.77       75.46       75.14       74.83       74.50       74.18       73.85       73.51    
        73.18       72.83       72.49       72.14       71.79       71.43       71.08       70.72       70.36       70.00    
  29    85.00       84.74       84.48       84.22       83.96       83.69       83.43       83.16       82.89       82.62    
        82.34       82.06       81.78       81.50       81.21       80.92       80.62       80.32       80.02       79.72    
        79.42       79.11       78.81       78.50       78.20       77.90       77.60       77.30       77.00       76.69    
        76.39       76.09       75.78       75.47       75.15       74.83       74.51       74.18       73.85       73.52    
        73.18       72.84       72.49       72.14       71.79       71.44       71.08       70.72       70.36       70.00    
  30    85.00       84.74       84.48       84.22       83.96       83.70       83.43       83.16       82.89       82.62    
        82.35       82.07       81.79       81.50       81.22       80.93       80.63       80.34       80.04       79.74    
        79.43       79.13       78.83       78.52       78.22       77.92       77.62       77.32       77.01       76.71    
        76.41       76.10       75.79       75.48       75.16       74.84       74.52       74.19       73.86       73.52    
        73.18       72.84       72.50       72.15       71.79       71.44       71.08       70.72       70.36       70.00    
  31    85.00       84.74       84.48       84.22       83.96       83.70       83.44       83.17       82.90       82.63    
        82.35       82.08       81.80       81.51       81.23       80.94       80.65       80.35       80.05       79.75    
        79.45       79.15       78.85       78.55       78.24       77.94       77.64       77.34       77.03       76.73    
        76.42       76.12       75.80       75.49       75.17       74.85       74.53       74.20       73.87       73.53    
        73.19       72.85       72.50       72.15       71.80       71.44       71.08       70.72       70.36       70.00    
  32    85.00       84.74       84.48       84.22       83.96       83.70       83.44       83.17       82.90       82.63    
        82.36       82.08       81.81       81.52       81.24       80.95       80.66       80.37       80.07       79.77    
        79.47       79.17       78.87       78.57       78.27       77.96       77.66       77.36       77.05       76.75    
        76.44       76.13       75.82       75.50       75.18       74.86       74.54       74.21       73.87       73.54    
        73.20       72.85       72.50       72.15       71.80       71.44       71.08       70.72       70.36       70.00    
  33    85.00       84.74       84.49       84.23       83.97       83.71       83.44       83.18       82.91       82.64    
        82.37       82.09       81.81       81.53       81.25       80.96       80.67       80.38       80.09       79.79    
        79.49       79.19       78.89       78.59       78.29       77.99       77.69       77.38       77.08       76.77    
        76.46       76.15       75.84       75.52       75.20       74.87       74.55       74.22       73.88       73.54    
        73.20       72.86       72.51       72.16       71.80       71.45       71.09       70.73       70.36       70.00    
  34    85.00       84.74       84.49       84.23       83.97       83.71       83.45       83.18       82.92       82.65    
        82.38       82.10       81.83       81.55       81.26       80.98       80.69       80.40       80.11       79.81    
        79.52       79.22       78.92       78.62       78.32       78.01       77.71       77.40       77.10       76.79    
        76.48       76.17       75.85       75.53       75.21       74.89       74.56       74.23       73.89       73.55    
        73.21       72.86       72.51       72.16       71.81       71.45       71.09       70.73       70.36       70.00    
  35    85.00       84.74       84.49       84.23       83.97       83.71       83.45       83.19       82.92       82.66    
        82.38       82.11       81.84       81.56       81.28       80.99       80.71       80.42       80.12       79.83    
        79.54       79.24       78.94       78.64       78.34       78.04       77.73       77.43       77.12       76.81    
        76.50       76.18       75.87       75.55       75.23       74.90       74.57       74.24       73.90       73.56    
        73.22       72.87       72.52       72.17       71.81       71.45       71.09       70.73       70.36       70.00    
  36    85.00       84.75       84.49       84.23       83.98       83.72       83.46       83.19       82.93       82.66    
        82.39       82.12       81.85       81.57       81.29       81.01       80.72       80.43       80.14       79.85    
        79.56       79.26       78.96       78.66       78.36       78.06       77.75       77.45       77.14       76.83    
        76.52       76.20       75.88       75.56       75.24       74.91       74.58       74.25       73.91       73.57    
        73.22       72.88       72.53       72.17       71.81       71.45       71.09       70.73       70.37       70.00    
  37    85.00       84.75       84.49       84.24       83.98       83.72       83.46       83.20       82.94       82.67    
        82.40       82.13       81.86       81.58       81.30       81.02       80.74       80.45       80.16       79.87    
        79.58       79.28       78.98       78.68       78.38       78.08       77.77       77.47       77.16       76.85    
        76.54       76.22       75.90       75.58       75.25       74.93       74.59       74.26       73.92       73.58    
        73.23       72.88       72.53       72.18       71.82       71.46       71.10       70.73       70.37       70.00    
  38    85.00       84.75       84.49       84.24       83.98       83.73       83.47       83.21       82.94       82.68    
        82.41       82.14       81.87       81.59       81.31       81.03       80.75       80.46       80.18       79.89    
        79.59       79.30       79.00       78.70       78.40       78.10       77.79       77.49       77.18       76.87    
        76.55       76.24       75.92       75.59       75.27       74.94       74.61       74.27       73.93       73.59    
        73.24       72.89       72.54       72.18       71.82       71.46       71.10       70.73       70.37       70.00    
  39    85.00       84.75       84.49       84.24       83.99       83.73       83.47       83.21       82.95       82.68    
        82.42       82.15       81.88       81.60       81.33       81.05       80.76       80.48       80.19       79.90    
        79.61       79.32       79.02       78.72       78.42       78.12       77.81       77.51       77.20       76.88    
        76.57       76.25       75.93       75.61       75.28       74.95       74.62       74.28       73.94       73.59    
        73.25       72.90       72.54       72.19       71.83       71.46       71.10       70.73       70.37       70.00    
  40    85.00       84.75       84.50       84.24       83.99       83.73       83.48       83.22       82.96       82.69    
        82.43       82.16       81.89       81.61       81.34       81.06       80.78       80.49       80.21       79.92    
        79.63       79.33       79.04       78.74       78.44       78.14       77.83       77.52       77.21       76.90    
        76.59       76.27       75.94       75.62       75.29       74.96       74.63       74.29       73.95       73.60    
        73.25       72.90       72.55       72.19       71.83       71.47       71.10       70.74       70.37       70.00    
  41    85.00       84.75       84.50       84.24       83.99       83.74       83.48       83.22       82.96       82.70    
        82.43       82.17       81.90       81.62       81.35       81.07       80.79       80.51       80.22       79.93    
        79.64       79.35       79.05       78.76       78.46       78.15       77.85       77.54       77.23       76.92    
        76.60       76.28       75.96       75.63       75.30       74.97       74.64       74.30       73.96       73.61    
        73.26       72.91       72.55       72.19       71.83       71.47       71.10       70.74       70.37       70.00    
  42    85.00       84.75       84.50       84.25       83.99       83.74       83.48       83.23       82.97       82.70    
        82.44       82.17       81.90       81.63       81.36       81.08       80.80       80.52       80.23       79.95    
        79.66       79.36       79.07       78.77       78.47       78.17       77.86       77.55       77.24       76.93    
        76.61       76.29       75.97       75.64       75.31       74.98       74.65       74.31       73.96       73.62    
        73.27       72.91       72.56       72.20       71.84       71.47       71.11       70.74       70.37       70.00    
  43    85.00       84.75       84.50       84.25       84.00       83.74       83.49       83.23       82.97       82.71    
        82.45       82.18       81.91       81.64       81.37       81.09       80.81       80.53       80.25       79.96    
        79.67       79.38       79.08       78.78       78.48       78.18       77.88       77.57       77.26       76.94    
        76.62       76.30       75.98       75.65       75.32       74.99       74.65       74.31       73.97       73.62    
        73.27       72.92       72.56       72.20       71.84       71.47       71.11       70.74       70.37       70.00    
  44    85.00       84.75       84.50       84.25       84.00       83.75       83.49       83.23       82.98       82.71    
        82.45       82.19       81.92       81.65       81.38       81.10       80.82       80.54       80.26       79.97    
        79.68       79.39       79.09       78.80       78.50       78.19       77.89       77.58       77.27       76.95    
        76.64       76.31       75.99       75.66       75.33       75.00       74.66       74.32       73.98       73.63    
        73.28       72.92       72.57       72.21       71.84       71.48       71.11       70.74       70.37       70.00    
  45    85.00       84.75       84.50       84.25       84.00       83.75       83.49       83.24       82.98       82.72    
        82.46       82.19       81.92       81.65       81.38       81.11       80.83       80.55       80.26       79.98    
        79.69       79.40       79.10       78.81       78.51       78.20       77.90       77.59       77.28       76.96    
        76.64       76.32       76.00       75.67       75.34       75.01       74.67       74.33       73.98       73.63    
        73.28       72.93       72.57       72.21       71.84       71.48       71.11       70.74       70.37       70.00    
  46    85.00       84.75       84.50       84.25       84.00       83.75       83.50       83.24       82.98       82.72    
        82.46       82.20       81.93       81.66       81.39       81.11       80.84       80.56       80.27       79.99    
        79.70       79.41       79.11       78.81       78.51       78.21       77.91       77.60       77.29       76.97    
        76.65       76.33       76.01       75.68       75.35       75.01       74.67       74.33       73.99       73.64    
        73.29       72.93       72.57       72.21       71.85       71.48       71.11       70.74       70.37       70.00    
  47    85.00       84.75       84.50       84.25       84.00       83.75       83.50       83.24       82.99       82.73    
        82.46       82.20       81.93       81.66       81.39       81.12       80.84       80.56       80.28       79.99    
        79.70       79.41       79.12       78.82       78.52       78.22       77.91       77.60       77.29       76.98    
        76.66       76.34       76.01       75.68       75.35       75.02       74.68       74.34       73.99       73.64    
        73.29       72.93       72.57       72.21       71.85       71.48       71.11       70.74       70.37       70.00    
  48    85.00       84.75       84.50       84.25       84.00       83.75       83.50       83.24       82.99       82.73    
        82.47       82.20       81.94       81.67       81.40       81.12       80.84       80.57       80.28       80.00    
        79.71       79.42       79.12       78.83       78.53       78.22       77.92       77.61       77.30       76.98    
        76.66       76.34       76.02       75.69       75.36       75.02       74.68       74.34       73.99       73.64    
        73.29       72.93       72.58       72.21       71.85       71.48       71.11       70.74       70.37       70.00    
  49    85.00       84.75       84.50       84.25       84.00       83.75       83.50       83.25       82.99       82.73    
        82.47       82.20       81.94       81.67       81.40       81.12       80.85       80.57       80.29       80.00    
        79.71       79.42       79.13       78.83       78.53       78.23       77.92       77.61       77.30       76.98    
        76.67       76.34       76.02       75.69       75.36       75.02       74.68       74.34       73.99       73.64    
        73.29       72.94       72.58       72.22       71.85       71.48       71.11       70.74       70.37       70.00    
  50    85.00       84.75       84.50       84.25       84.00       83.75       83.50       83.25       82.99       82.73    
        82.47       82.21       81.94       81.67       81.40       81.13       80.85       80.57       80.29       80.00    
        79.71       79.42       79.13       78.83       78.53       78.23       77.92       77.61       77.30       76.99    
        76.67       76.35       76.02       75.69       75.36       75.02       74.68       74.34       74.00       73.65    
        73.29       72.94       72.58       72.22       71.85       71.48       71.11       70.74       70.37       70.00    

 HEAD WILL BE SAVED ON UNIT   51 AT END OF TIME STEP    1, STRESS PERIOD    1
1
  VOLUMETRIC BUDGET FOR ENTIRE MODEL AT END OF TIME STEP    1, STRESS PERIOD   1
  ------------------------------------------------------------------------------

     CUMULATIVE VOLUMES      L**3       RATES FOR THIS TIME STEP      L**3/T
     ------------------                 ------------------------

           IN:                                      IN:
           ---                                      ---
             STORAGE =           0.0000               STORAGE =           0.0000
       CONSTANT HEAD =         688.2640         CONSTANT HEAD =         688.2640
               WELLS =           0.0000                 WELLS =           0.0000
            RECHARGE =        1200.0000              RECHARGE =        1200.0000

            TOTAL IN =        1888.2640              TOTAL IN =        1888.2640

          OUT:                                     OUT:
          ----                                     ----
             STORAGE =           0.0000               STORAGE =           0.0000
       CONSTANT HEAD =        1388.2640         CONSTANT HEAD =        1388.2640
               WELLS =         500.0000                 WELLS =         500.0000
            RECHARGE =           0.0000              RECHARGE =           0.0000

           TOTAL OUT =        1888.2640             TOTAL OUT =        1888.2640

            IN - OUT =           0.0000              IN - OUT =           0.0000

 PERCENT DISCREPANCY =           0.00     PERCENT DISCREPANCY =           0.00






         TIME SUMMARY AT END OF TIME STEP    1 IN STRESS PERIOD    1
                    SECONDS     MINUTES      HOURS       DAYS        YEARS
                    -----------------------------------------------------------
   TIME STEP LENGTH  86400.      1440.0      24.000      1.0000     2.73785E-03
 STRESS PERIOD TIME  86400.      1440.0      24.000      1.0000     2.73785E-03
         TOTAL TIME  86400.      1440.0      24.000      1.0000     2.73785E-03
1

 Run end date and time (yyyy/mm/dd hh:mm:ss): 2026/02/12 21:40:19
 Elapsed run time:  0.073 Seconds

