                                  MODFLOW-2005     
      U.S. GEOLOGICAL SURVEY MODULAR FINITE-DIFFERENCE GROUND-WATER FLOW MODEL
                            VERSION 1.12.00 2/3/2017

 LIST FILE: static_ensemble_1133113.list
                         UNIT    2

 OPENING static_ensemble_1133113.dis
 FILE TYPE:DIS   UNIT   11   STATUS:OLD    
 FORMAT:FORMATTED              ACCESS:SEQUENTIAL          

 OPENING static_ensemble_1133113.bas
 FILE TYPE:BAS6   UNIT   13   STATUS:OLD    
 FORMAT:FORMATTED              ACCESS:SEQUENTIAL          

 OPENING static_ensemble_1133113.lpf
 FILE TYPE:LPF   UNIT   15   STATUS:OLD    
 FORMAT:FORMATTED              ACCESS:SEQUENTIAL          

 OPENING static_ensemble_1133113.evt
 FILE TYPE:EVT   UNIT   22   STATUS:OLD    
 FORMAT:FORMATTED              ACCESS:SEQUENTIAL          

 OPENING static_ensemble_1133113.rch
 FILE TYPE:RCH   UNIT   19   STATUS:OLD    
 FORMAT:FORMATTED              ACCESS:SEQUENTIAL          

 OPENING static_ensemble_1133113.riv
 FILE TYPE:RIV   UNIT   18   STATUS:OLD    
 FORMAT:FORMATTED              ACCESS:SEQUENTIAL          

 OPENING static_ensemble_1133113.wel
 FILE TYPE:WEL   UNIT   20   STATUS:OLD    
 FORMAT:FORMATTED              ACCESS:SEQUENTIAL          

 OPENING static_ensemble_1133113.oc
 FILE TYPE:OC   UNIT   14   STATUS:OLD    
 FORMAT:FORMATTED              ACCESS:SEQUENTIAL          

 OPENING static_ensemble_1133113.pcg
 FILE TYPE:PCG   UNIT   27   STATUS:OLD    
 FORMAT:FORMATTED              ACCESS:SEQUENTIAL          

 OPENING static_ensemble_1133113.cbc
 FILE TYPE:DATA(BINARY)   UNIT   53   STATUS:REPLACE
 FORMAT:UNFORMATTED            ACCESS:STREAM              

 OPENING static_ensemble_1133113.hds
 FILE TYPE:DATA(BINARY)   UNIT   51   STATUS:REPLACE
 FORMAT:UNFORMATTED            ACCESS:STREAM              

 OPENING static_ensemble_1133113.ddn
 FILE TYPE:DATA(BINARY)   UNIT   52   STATUS:REPLACE
 FORMAT:UNFORMATTED            ACCESS:STREAM              

 BAS -- BASIC PACKAGE, VERSION 7, 5/2/2005 INPUT READ FROM UNIT   13
 
 MODFLOW was compiled using mixed precision
 Precision of REAL variables:           6
 Precision of DOUBLE PRECISION variables:          15

 DISCRETIZATION INPUT DATA READ FROM UNIT   11
 # DIS package for MODFLOW-2005 generated by Flopy 3.9.5
    3 LAYERS        50 ROWS        50 COLUMNS
    1 STRESS PERIOD(S) IN SIMULATION
 MODEL TIME UNIT IS DAYS
 MODEL LENGTH UNIT IS METERS
  Confining bed flag for each layer:
   0   0   0

                     DELR =   1000.00    

                     DELC =   1000.00    



           TOP ELEVATION OF LAYER 1
 READING ON UNIT   11 WITH FORMAT: (50E15.6)           



             MODEL LAYER BOTTOM EL. FOR LAYER   1
 READING ON UNIT   11 WITH FORMAT: (50E15.6)           



             MODEL LAYER BOTTOM EL. FOR LAYER   2
 READING ON UNIT   11 WITH FORMAT: (50E15.6)           



             MODEL LAYER BOTTOM EL. FOR LAYER   3
 READING ON UNIT   11 WITH FORMAT: (50E15.6)           


 STRESS PERIOD     LENGTH       TIME STEPS     MULTIPLIER FOR DELT    SS FLAG
 ----------------------------------------------------------------------------
        1         1.000000          1                    1.000         SS

 STEADY-STATE SIMULATION



 
 # BAS6 package for MODFLOW-2005 generated by Flopy 3.9.5                        
 THE FREE FORMAT OPTION HAS BEEN SELECTED



                     BOUNDARY ARRAY FOR LAYER   1
 READING ON UNIT   13 WITH FORMAT: (50I10)             



                     BOUNDARY ARRAY FOR LAYER   2
 READING ON UNIT   13 WITH FORMAT: (50I10)             



                     BOUNDARY ARRAY FOR LAYER   3
 READING ON UNIT   13 WITH FORMAT: (50I10)             

 AQUIFER HEAD WILL BE SET TO  -999.99     AT ALL NO-FLOW NODES (IBOUND=0).



                       INITIAL HEAD FOR LAYER   1
 READING ON UNIT   13 WITH FORMAT: (50E15.6)           



                       INITIAL HEAD FOR LAYER   2
 READING ON UNIT   13 WITH FORMAT: (50E15.6)           



                       INITIAL HEAD FOR LAYER   3
 READING ON UNIT   13 WITH FORMAT: (50E15.6)           
 # OC package for MODFLOW-2005 generated by Flopy 3.9.5

 OUTPUT CONTROL IS SPECIFIED ONLY AT TIME STEPS FOR WHICH OUTPUT IS DESIRED
 COMPACT CELL-BY-CELL BUDGET FILES WILL BE WRITTEN
 AUXILIARY DATA WILL BE SAVED IN CELL-BY-CELL BUDGET FILES
 HEAD PRINT FORMAT CODE IS   0    DRAWDOWN PRINT FORMAT CODE IS   0
 HEADS WILL BE SAVED ON UNIT   51    DRAWDOWNS WILL BE SAVED ON UNIT   52

 LPF -- LAYER-PROPERTY FLOW PACKAGE, VERSION 7, 5/2/2005
         INPUT READ FROM UNIT   15
 # LPF package for MODFLOW-2005 generated by Flopy 3.9.5
 CELL-BY-CELL FLOWS WILL BE SAVED ON UNIT   53
 HEAD AT CELLS THAT CONVERT TO DRY= -1.00000E+30
 No named parameters
 STORAGECOEFFICIENT OPTION:
 Read storage coefficient rather than specific storage

   LAYER FLAGS:
 LAYER       LAYTYP        LAYAVG         CHANI        LAYVKA        LAYWET
 ---------------------------------------------------------------------------
    1             1             0     1.000E+00             0             0
    2             1             0     1.000E+00             0             0
    3             1             0     1.000E+00             0             0

   INTERPRETATION OF LAYER FLAGS:
                        INTERBLOCK     HORIZONTAL    DATA IN
         LAYER TYPE   TRANSMISSIVITY   ANISOTROPY   ARRAY VKA   WETTABILITY
 LAYER      (LAYTYP)      (LAYAVG)       (CHANI)      (LAYVKA)      (LAYWET)
 ---------------------------------------------------------------------------
    1   CONVERTIBLE      HARMONIC     1.000E+00    VERTICAL K  NON-WETTABLE
    2   CONVERTIBLE      HARMONIC     1.000E+00    VERTICAL K  NON-WETTABLE
    3   CONVERTIBLE      HARMONIC     1.000E+00    VERTICAL K  NON-WETTABLE

 WETTING CAPABILITY IS NOT ACTIVE IN ANY LAYER



              HYD. COND. ALONG ROWS FOR LAYER   1
 READING ON UNIT   15 WITH FORMAT: (50E15.6)           



                VERTICAL HYD. COND. FOR LAYER   1
 READING ON UNIT   15 WITH FORMAT: (50E15.6)           



              HYD. COND. ALONG ROWS FOR LAYER   2
 READING ON UNIT   15 WITH FORMAT: (50E15.6)           



                VERTICAL HYD. COND. FOR LAYER   2
 READING ON UNIT   15 WITH FORMAT: (50E15.6)           



              HYD. COND. ALONG ROWS FOR LAYER   3
 READING ON UNIT   15 WITH FORMAT: (50E15.6)           



                VERTICAL HYD. COND. FOR LAYER   3
 READING ON UNIT   15 WITH FORMAT: (50E15.6)           

 WEL -- WELL PACKAGE, VERSION 7, 5/2/2005 INPUT READ FROM UNIT   20
 # WEL package for MODFLOW-2005 generated by Flopy 3.9.5
 No named parameters
 MAXIMUM OF      3 ACTIVE WELLS AT ONE TIME


     0 Well parameters

 RIV -- RIVER PACKAGE, VERSION 7, 5/2/2005 INPUT READ FROM UNIT   18
 # RIV package for MODFLOW-2005 generated by Flopy 3.9.5
 No named parameters
 MAXIMUM OF     49 ACTIVE RIVER REACHES AT ONE TIME
 CELL-BY-CELL FLOWS WILL BE SAVED ON UNIT   53


     0 River parameters

 EVT -- EVAPOTRANSPIRATION PACKAGE, VERSION 7, 5/2/2005
         INPUT READ FROM UNIT   22
 # EVT package for MODFLOW-2005 generated by Flopy 3.9.5
 No named parameters
 OPTION 3 -- EVAPOTRANSPIRATION FROM HIGHEST ACTIVE NODE IN EACH VERTICAL COLUMN
 CELL-BY-CELL FLOWS WILL BE SAVED ON UNIT   53


     0 Evapotranspiration parameters

 RCH -- RECHARGE PACKAGE, VERSION 7, 5/2/2005 INPUT READ FROM UNIT   19
 # RCH package for MODFLOW-2005 generated by Flopy 3.9.5
 No named parameters
 OPTION 3 -- RECHARGE TO HIGHEST ACTIVE NODE IN EACH VERTICAL COLUMN
 CELL-BY-CELL FLOWS WILL BE SAVED ON UNIT   53


     0 Recharge parameters

 PCG -- CONJUGATE-GRADIENT SOLUTION PACKAGE, VERSION 7, 5/2/2005
 # PCG package for MODFLOW-2005 generated by Flopy 3.9.5
 MAXIMUM OF   5000 CALLS OF SOLUTION ROUTINE
 MAXIMUM OF    500 INTERNAL ITERATIONS PER CALL TO SOLUTION ROUTINE
 MATRIX PRECONDITIONING TYPE :    1



                                    SOLUTION BY THE CONJUGATE-GRADIENT METHOD
                                   -------------------------------------------
                    MAXIMUM NUMBER OF CALLS TO PCG ROUTINE =     5000
                        MAXIMUM ITERATIONS PER CALL TO PCG =      500
                               MATRIX PRECONDITIONING TYPE =        1
        RELAXATION FACTOR (ONLY USED WITH PRECOND. TYPE 1) =    0.97000E+00
 PARAMETER OF POLYNOMIAL PRECOND. = 2 (2) OR IS CALCULATED :        0
                         HEAD CHANGE CRITERION FOR CLOSURE =    0.10000E-04
                     RESIDUAL CHANGE CRITERION FOR CLOSURE =    0.10000E-04
            PCG HEAD AND RESIDUAL CHANGE PRINTOUT INTERVAL =      999
     PRINTING FROM SOLVER IS LIMITED(1) OR SUPPRESSED (>1) =        3
                            STEADY-STATE DAMPING PARAMETER =    0.10000E-01
                               TRANSIENT DAMPING PARAMETER =    0.10000E-01
1
                            STRESS PERIOD NO.    1, LENGTH =   1.000000    
                            -----------------------------------------------

                              NUMBER OF TIME STEPS =     1

                               MULTIPLIER FOR DELT =     1.000

                            INITIAL TIME STEP SIZE =   1.000000    

 WELL NO.  LAYER   ROW   COL   STRESS RATE         
 --------------------------------------------------
      1      3     22     39      -1500.    
      2      1     13     15       0.000    
      3      1     25     26       375.0    

      3 WELLS

 REACH NO.  LAYER   ROW   COL     STAGE      CONDUCTANCE     BOTTOM EL.         
 -------------------------------------------------------------------------------
      1      1     25      2       100.5           5000.           98.00    
      2      1     25      3       99.50           5000.           97.00    
      3      1     25      4       98.50           5000.           96.00    
      4      1     25      5       97.50           5000.           95.00    
      5      1     25      6       96.50           5000.           94.00    
      6      1     25      7       95.50           5000.           93.00    
      7      1     25      8       94.50           5000.           92.00    
      8      1     25      9       93.50           5000.           91.00    
      9      1     25     10       92.50           5000.           90.00    
     10      1     25     11       91.50           5000.           89.00    
     11      1     25     12       90.50           5000.           88.00    
     12      1     25     13       89.50           5000.           87.00    
     13      1     25     14       88.50           5000.           86.00    
     14      1     25     15       87.50           5000.           85.00    
     15      1     25     16       86.50           5000.           84.00    
     16      1     25     17       85.50           5000.           83.00    
     17      1     25     18       84.50           5000.           82.00    
     18      1     25     19       83.50           5000.           81.00    
     19      1     25     20       82.50           5000.           80.00    
     20      1     25     21       81.50           5000.           79.00    
     21      1     25     22       80.50           5000.           78.00    
     22      1     25     23       79.50           5000.           77.00    
     23      1     25     24       78.50           5000.           76.00    
     24      1     25     25       77.50           5000.           75.00    
     25      1     25     26       77.40           5000.           74.90    
     26      1     25     27       77.30           5000.           74.80    
     27      1     25     28       77.20           5000.           74.70    
     28      1     25     29       77.10           5000.           74.60    
     29      1     25     30       77.00           5000.           74.50    
     30      1     25     31       76.90           5000.           74.40    
     31      1     25     32       76.80           5000.           74.30    
     32      1     25     33       76.70           5000.           74.20    
     33      1     25     34       76.60           5000.           74.10    
     34      1     25     35       76.50           5000.           74.00    
     35      1     25     36       76.40           5000.           73.90    
     36      1     25     37       76.30           5000.           73.80    
     37      1     25     38       76.20           5000.           73.70    
     38      1     25     39       76.10           5000.           73.60    
     39      1     25     40       76.00           5000.           73.50    
     40      1     25     41       75.90           5000.           73.40    
     41      1     25     42       75.80           5000.           73.30    
     42      1     25     43       75.70           5000.           73.20    
     43      1     25     44       75.60           5000.           73.10    
     44      1     25     45       75.50           5000.           73.00    
     45      1     25     46       75.40           5000.           72.90    
     46      1     25     47       75.30           5000.           72.80    
     47      1     25     48       75.20           5000.           72.70    
     48      1     25     49       75.10           5000.           72.60    
     49      1     25     50       75.00           5000.           72.50    

     49 RIVER REACHES



                         ET SURFACE
 READING ON UNIT   22 WITH FORMAT: (50E15.6)           



            EVAPOTRANSPIRATION RATE
 READING ON UNIT   22 WITH FORMAT: (50E15.6)           

         EXTINCTION DEPTH =   10.0000    



                           RECHARGE
 READING ON UNIT   19 WITH FORMAT: (50E15.6)           
 
 SOLVING FOR HEAD 

 OUTPUT CONTROL FOR STRESS PERIOD    1   TIME STEP    1
    SAVE HEAD FOR ALL LAYERS
    SAVE DRAWDOWN FOR ALL LAYERS
    SAVE BUDGET
    PRINT HEAD FOR ALL LAYERS
    PRINT BUDGET
 UBDSV2 SAVING "   CONSTANT HEAD" ON UNIT  53 AT TIME STEP  1, STRESS PERIOD   1
 UBDSV1 SAVING "FLOW RIGHT FACE " ON UNIT  53 AT TIME STEP  1, STRESS PERIOD   1
 UBDSV1 SAVING "FLOW FRONT FACE " ON UNIT  53 AT TIME STEP  1, STRESS PERIOD   1
 UBDSV1 SAVING "FLOW LOWER FACE " ON UNIT  53 AT TIME STEP  1, STRESS PERIOD   1
 UBDSV4 SAVING "   RIVER LEAKAGE" ON UNIT  53 AT TIME STEP  1, STRESS PERIOD   1
 UBDSV3 SAVING "              ET" ON UNIT  53 AT TIME STEP  1, STRESS PERIOD   1
 UBDSV3 SAVING "        RECHARGE" ON UNIT  53 AT TIME STEP  1, STRESS PERIOD   1
1
              HEAD IN LAYER   1 AT END OF TIME STEP   1 IN STRESS PERIOD    1
  ---------------------------------------------------------------------------

            1           2           3           4           5           6           7           8           9          10
           11          12          13          14          15          16          17          18          19          20
           21          22          23          24          25          26          27          28          29          30
           31          32          33          34          35          36          37          38          39          40
           41          42          43          44          45          46          47          48          49          50
 ........................................................................................................................
   1  -1000.0     -1000.0     -1000.0     -1000.0     -1000.0     -1000.0     -1000.0     -1000.0     -1000.0     -1000.0    
      -1000.0     -1000.0     -1000.0     -1000.0     -1000.0     -1000.0     -1000.0     -1000.0     -1000.0     -1000.0    
      -1000.0     -1000.0     -1000.0     -1000.0     -1000.0     -1000.0     -1000.0     -1000.0     -1000.0     -1000.0    
      -1000.0     -1000.0     -1000.0     -1000.0     -1000.0     -1000.0     -1000.0     -1000.0     -1000.0     -1000.0    
      -1000.0     -1000.0     -1000.0     -1000.0     -1000.0     -1000.0     -1000.0     -1000.0     -1000.0       70.00    
   2  -1000.0     -1000.0     -1000.0     -1000.0     -1000.0       102.8       102.6       102.2       101.6       101.0    
        100.5       99.89       99.17       98.36       97.45       96.46       95.49       94.52       93.58       92.65    
        91.78       90.93       90.08       89.25       88.43       87.62       86.82       86.04       85.26       84.50    
        83.74       83.00       82.27       81.54       80.82       80.11       79.41       78.70       78.00       77.30    
        76.61       75.90       75.20       74.49       73.77       73.05       72.31       71.56       70.79       70.00    
   3  -1000.0     -1000.0     -1000.0     -1000.0       103.1       102.9       102.6       102.1       101.6       101.1    
        100.5       99.88       99.15       98.34       97.43       96.44       95.46       94.50       93.55       92.62    
        91.76       90.90       90.06       89.22       88.40       87.59       86.80       86.01       85.24       84.48    
        83.72       82.98       82.25       81.53       80.81       80.10       79.39       78.69       77.99       77.29    
        76.60       75.90       75.19       74.49       73.77       73.04       72.31       71.56       70.79       70.00    
   4  -1000.0     -1000.0     -1000.0       103.4       103.2       102.9       102.5       102.0       101.6       101.1    
        100.5       99.85       99.11       98.29       97.39       96.39       95.41       94.45       93.50       92.57    
        91.71       90.85       90.01       89.17       88.35       87.55       86.75       85.97       85.19       84.43    
        83.68       82.94       82.21       81.49       80.78       80.07       79.36       78.67       77.97       77.27    
        76.58       75.88       75.18       74.47       73.76       73.04       72.30       71.55       70.79       70.00    
   5  -1000.0     -1000.0       103.5       103.4       103.2       102.8       102.4       102.0       101.6       101.1    
        100.5       99.80       99.06       98.23       97.32       96.32       95.34       94.37       93.43       92.49    
        91.63       90.77       89.93       89.10       88.28       87.47       86.68       85.90       85.13       84.37    
        83.62       82.88       82.16       81.44       80.73       80.02       79.32       78.63       77.94       77.24    
        76.55       75.86       75.16       74.46       73.75       73.03       72.29       71.55       70.78       70.00    
   6  -1000.0       103.6       103.5       103.3       103.1       102.7       102.4       102.0       101.5       101.0    
        100.4       99.72       98.97       98.14       97.22       96.22       95.24       94.27       93.32       92.39    
        91.53       90.67       89.83       89.00       88.18       87.37       86.58       85.80       85.03       84.28    
        83.54       82.81       82.08       81.37       80.66       79.96       79.27       78.58       77.89       77.20    
        76.52       75.83       75.13       74.43       73.73       73.01       72.28       71.54       70.78       70.00    
   7  -1000.0       103.5       103.4       103.2       102.9       102.7       102.3       101.9       101.5       100.9    
        100.3       99.62       98.86       98.02       97.10       96.10       95.11       94.14       93.19       92.26    
        91.40       90.54       89.70       88.87       88.05       87.25       86.46       85.68       84.92       84.17    
        83.43       82.71       81.99       81.28       80.58       79.89       79.20       78.52       77.84       77.15    
        76.47       75.79       75.10       74.41       73.71       72.99       72.27       71.53       70.78       70.00    
   8  -1000.0       103.4       103.3       103.1       102.8       102.6       102.2       101.8       101.3       100.8    
        100.2       99.48       98.72       97.87       96.95       95.94       94.95       93.98       93.04       92.11    
        91.24       90.38       89.54       88.71       87.90       87.10       86.31       85.54       84.78       84.04    
        83.31       82.59       81.88       81.18       80.48       79.80       79.12       78.44       77.77       77.10    
        76.42       75.75       75.06       74.38       73.68       72.98       72.26       71.52       70.77       70.00    
   9  -1000.0       103.2       103.1       102.9       102.7       102.4       102.1       101.7       101.2       100.6    
        100.0       99.32       98.55       97.70       96.77       95.76       94.77       93.80       92.85       91.92    
        91.05       90.20       89.35       88.53       87.71       86.92       86.13       85.37       84.62       83.88    
        83.16       82.45       81.74       81.05       80.37       79.70       79.02       78.36       77.69       77.03    
        76.36       75.70       75.02       74.34       73.65       72.95       72.24       71.51       70.77       70.00    
  10  -1000.0       103.0       102.9       102.8       102.6       102.3       101.9       101.5       101.0       100.5    
        99.83       99.12       98.34       97.49       96.56       95.54       94.55       93.58       92.63       91.70    
        90.83       89.98       89.14       88.31       87.50       86.71       85.93       85.17       84.43       83.70    
        82.98       82.28       81.59       80.91       80.24       79.58       78.92       78.26       77.61       76.95    
        76.30       75.64       74.98       74.30       73.62       72.93       72.22       71.50       70.76       70.00    
  11  -1000.0       102.8       102.7       102.6       102.4       102.1       101.7       101.3       100.8       100.2    
        99.61       98.89       98.11       97.25       96.31       95.29       94.30       93.33       92.38       91.46    
        90.59       89.73       88.89       88.07       87.26       86.47       85.70       84.95       84.21       83.49    
        82.79       82.10       81.42       80.75       80.09       79.44       78.80       78.15       77.51       76.87    
        76.23       75.58       74.93       74.27       73.59       72.91       72.21       71.49       70.76       70.00    
  12  -1000.0       102.6       102.5       102.4       102.2       101.9       101.5       101.1       100.6      100.00    
        99.35       98.63       97.84       96.97       96.03       95.01       94.02       93.05       92.10       91.18    
        90.31       89.45       88.61       87.79       86.99       86.21       85.44       84.70       83.97       83.26    
        82.57       81.89       81.23       80.58       79.93       79.29       78.66       78.04       77.41       76.78    
        76.15       75.52       74.88       74.23       73.56       72.89       72.19       71.48       70.75       70.00    
  13  -1000.0       102.4       102.3       102.2       101.9       101.6       101.3       100.8       100.3       99.72    
        99.06       98.33       97.53       96.66       95.71       94.69       93.69       92.73       91.78       90.87    
        89.99       89.14       88.30       87.48       86.68       85.90       85.15       84.41       83.70       83.00    
        82.33       81.66       81.02       80.38       79.75       79.13       78.52       77.91       77.30       76.69    
        76.08       75.46       74.83       74.19       73.54       72.87       72.18       71.48       70.75       70.00    
  14  -1000.0       102.1       102.1       101.9       101.7       101.4       101.0       100.5      100.00       99.40    
        98.73       98.00       97.19       96.31       95.36       94.33       93.34       92.37       91.43       90.52    
        89.64       88.79       87.95       87.13       86.34       85.57       84.82       84.10       83.40       82.72    
        82.06       81.41       80.78       80.16       79.56       78.96       78.36       77.77       77.19       76.59    
        76.00       75.40       74.78       74.16       73.52       72.86       72.17       71.47       70.75       70.00    
  15  -1000.0       101.9       101.8       101.6       101.4       101.1       100.7       100.2       99.66       99.05    
        98.37       97.62       96.81       95.92       94.96       93.93       92.93       91.97       91.03       90.13    
        89.25       88.39       87.56       86.75       85.96       85.20       84.46       83.75       83.06       82.40    
        81.76       81.14       80.53       79.93       79.35       78.77       78.20       77.63       77.07       76.50    
        75.92       75.34       74.74       74.13       73.50       72.85       72.18       71.48       70.75       70.00    
  16  -1000.0       101.6       101.5       101.3       101.1       100.7       100.3       99.84       99.29       98.66    
        97.97       97.21       96.38       95.48       94.52       93.49       92.49       91.53       90.60       89.70    
        88.82       87.96       87.13       86.32       85.54       84.78       84.06       83.36       82.70       82.05    
        81.44       80.84       80.25       79.68       79.12       78.57       78.03       77.48       76.94       76.40    
        75.85       75.29       74.71       74.12       73.50       72.86       72.19       71.49       70.76       70.00    
  17  -1000.0       101.3       101.2       101.0       100.7       100.4       99.96       99.45       98.88       98.23    
        97.52       96.74       95.90       95.00       94.03       93.00       92.00       91.04       90.12       89.23    
        88.34       87.48       86.65       85.84       85.06       84.32       83.61       82.93       82.29       81.67    
        81.08       80.51       79.95       79.41       78.88       78.36       77.85       77.33       76.82       76.30    
        75.78       75.25       74.69       74.12       73.52       72.89       72.22       71.51       70.77       70.00    
  18  -1000.0       101.0       100.9       100.7       100.4       100.0       99.56       99.03       98.43       97.76    
        97.03       96.23       95.38       94.47       93.49       92.45       91.45       90.50       89.59       88.72    
        87.82       86.95       86.11       85.31       84.53       83.80       83.11       82.46       81.84       81.26    
        80.69       80.16       79.63       79.13       78.63       78.14       77.66       77.18       76.70       76.22    
        75.72       75.22       74.69       74.14       73.56       72.94       72.28       71.56       70.80       70.00    
  19  -1000.0       100.7       100.6       100.4       100.0       99.63       99.14       98.57       97.93       97.24    
        96.48       95.67       94.80       93.87       92.89       91.85       90.85       89.90       89.00       88.15    
        87.24       86.35       85.51       84.70       83.94       83.22       82.55       81.93       81.35       80.80    
        80.27       79.77       79.29       78.82       78.36       77.91       77.47       77.03       76.59       76.14    
        75.68       75.21       74.72       74.20       73.64       73.03       72.37       71.64       70.85       70.00    
  20  -1000.0       100.4       100.3       100.0       99.67       99.21       98.67       98.07       97.40       96.67    
        95.88       95.05       94.16       93.22       92.23       91.18       90.18       89.24       88.36       87.53    
        86.58       85.68       84.83       84.02       83.27       82.57       81.93       81.35       80.80       80.30    
        79.82       79.36       78.92       78.50       78.09       77.68       77.28       76.88       76.48       76.07    
        75.66       75.23       74.78       74.29       73.76       73.18       72.52       71.76       70.92       70.00    
  21  -1000.0       100.1       99.99       99.70       99.28       98.77       98.18       97.52       96.80       96.03    
        95.22       94.36       93.45       92.49       91.49       90.44       89.44       88.51       87.64       86.83    
        85.85       84.92       84.05       83.24       82.50       81.83       81.23       80.70       80.21       79.75    
        79.33       78.92       78.53       78.16       77.80       77.44       77.08       76.73       76.38       76.02    
        75.66       75.28       74.87       74.44       73.95       73.39       72.74       71.97       71.05       70.00    
  22  -1000.0       99.95       99.75       99.38       98.89       98.30       97.64       96.92       96.15       95.33    
        94.48       93.59       92.66       91.69       90.68       89.62       88.63       87.70       86.84       86.06    
        85.02       84.05       83.16       82.34       81.61       80.98       80.44       79.97       79.55       79.16    
        78.79       78.45       78.12       77.80       77.49       77.19       76.89       76.59       76.29       75.99    
        75.68       75.36       75.01       74.63       74.21       73.70       73.08       72.30       71.27       70.00    
  23  -1000.0       99.85       99.57       99.09       98.49       97.80       97.05       96.26       95.42       94.55    
        93.66       92.73       91.78       90.80       89.78       88.72       87.72       86.79       85.94       85.19    
        84.07       83.06       82.13       81.29       80.57       80.00       79.55       79.16       78.82       78.51    
        78.22       77.95       77.68       77.43       77.18       76.94       76.70       76.46       76.22       75.98    
        75.73       75.47       75.19       74.89       74.55       74.13       73.59       72.84       71.70       70.00    
  24  -1000.0       99.92       99.48       98.83       98.07       97.26       96.40       95.51       94.61       93.68    
        92.74       91.78       90.80       89.81       88.79       87.74       86.74       85.79       84.91       84.17    
        82.96       81.91       80.94       80.06       79.31       78.87       78.53       78.26       78.02       77.81    
        77.61       77.41       77.22       77.04       76.86       76.68       76.51       76.33       76.16       75.98    
        75.80       75.62       75.42       75.21       74.97       74.69       74.31       73.73       72.62       70.00    
  25  -1000.0       100.3       99.50       98.56       97.61       96.63       95.66       94.67       93.69       92.70    
        91.70       90.71       89.71       88.71       87.70       86.69       85.68       84.69       83.71       82.81    
        81.61       80.60       79.59       78.60       77.64       77.56       77.38       77.27       77.16       77.05    
        76.94       76.84       76.73       76.63       76.52       76.42       76.31       76.21       76.10       76.00    
        75.89       75.79       75.68       75.58       75.47       75.36       75.24       75.11       74.85       70.00    
  26  -1000.0       99.97       99.53       98.88       98.12       97.30       96.45       95.56       94.65       93.72    
        92.78       91.82       90.84       89.85       88.83       87.78       86.78       85.82       84.94       84.21    
        82.99       81.93       80.96       80.07       79.32       78.88       78.54       78.28       78.04       77.83    
        77.63       77.44       77.25       77.07       76.89       76.71       76.54       76.36       76.18       76.01    
        75.82       75.63       75.44       75.22       74.98       74.69       74.31       73.73       72.62       70.00    
  27  -1000.0       99.93       99.66       99.19       98.59       97.90       97.15       96.35       95.52       94.65    
        93.75       92.82       91.87       90.89       89.87       88.81       87.81       86.88       86.02       85.28    
        84.15       83.13       82.20       81.36       80.63       80.07       79.61       79.22       78.89       78.58    
        78.29       78.02       77.76       77.50       77.25       77.01       76.76       76.52       76.28       76.03    
        75.77       75.51       75.22       74.92       74.56       74.14       73.60       72.84       71.71       70.00    
  28  -1000.0       100.1       99.88       99.52       99.03       98.44       97.78       97.06       96.29       95.48    
        94.62       93.73       92.80       91.83       90.81       89.75       88.76       87.83       86.97       86.20    
        85.15       84.18       83.28       82.46       81.72       81.09       80.55       80.07       79.65       79.26    
        78.90       78.56       78.23       77.91       77.60       77.29       76.98       76.68       76.38       76.07    
        75.75       75.41       75.06       74.67       74.24       73.72       73.10       72.31       71.28       70.00    
  29  -1000.0       100.3       100.2       99.87       99.46       98.95       98.36       97.71       96.99       96.22    
        95.40       94.54       93.63       92.68       91.67       90.61       89.62       88.68       87.81       87.01    
        86.02       85.09       84.21       83.40       82.65       81.97       81.37       80.83       80.34       79.89    
        79.46       79.06       78.67       78.29       77.92       77.56       77.20       76.84       76.48       76.12    
        75.74       75.35       74.94       74.49       73.99       73.43       72.77       71.98       71.06       70.00    
  30  -1000.0       100.6       100.5       100.2       99.87       99.43       98.90       98.29       97.62       96.89    
        96.11       95.27       94.38       93.44       92.45       91.39       90.40       89.46       88.57       87.74    
        86.79       85.89       85.03       84.22       83.45       82.75       82.10       81.51       80.97       80.46    
        79.98       79.52       79.08       78.65       78.23       77.82       77.42       77.01       76.60       76.19    
        75.76       75.32       74.86       74.36       73.82       73.22       72.55       71.79       70.93       70.00    
  31  -1000.0       100.9       100.8       100.6       100.3       99.87       99.39       98.83       98.20       97.50    
        96.75       95.93       95.06       94.14       93.15       92.10       91.10       90.15       89.25       88.40    
        87.49       86.60       85.75       84.93       84.16       83.43       82.75       82.13       81.54       80.98    
        80.46       79.95       79.47       78.99       78.53       78.08       77.63       77.18       76.73       76.27    
        75.80       75.32       74.82       74.28       73.71       73.09       72.41       71.67       70.86       70.00    
  32  -1000.0       101.3       101.2       101.0       100.7       100.3       99.84       99.32       98.72       98.05    
        97.32       96.53       95.68       94.76       93.78       92.74       91.74       90.79       89.87       89.00    
        88.11       87.23       86.39       85.57       84.79       84.04       83.34       82.68       82.05       81.46    
        80.90       80.36       79.83       79.32       78.82       78.32       77.83       77.35       76.86       76.36    
        75.86       75.34       74.80       74.24       73.64       73.01       72.32       71.59       70.82       70.00    
  33  -1000.0       101.6       101.5       101.3       101.0       100.7       100.3       99.77       99.19       98.55    
        97.84       97.07       96.23       95.33       94.35       93.32       92.32       91.36       90.44       89.55    
        88.66       87.80       86.96       86.14       85.34       84.58       83.86       83.17       82.52       81.90    
        81.31       80.73       80.17       79.62       79.09       78.56       78.04       77.52       76.99       76.47    
        75.93       75.38       74.81       74.23       73.61       72.96       72.27       71.55       70.79       70.00    
  34  -1000.0       101.9       101.8       101.7       101.4       101.1       100.7       100.2       99.63       99.00    
        98.31       97.55       96.73       95.83       94.87       93.83       92.84       91.87       90.94       90.05    
        89.17       88.31       87.46       86.64       85.84       85.07       84.33       83.63       82.95       82.31    
        81.68       81.07       80.48       79.91       79.34       78.78       78.23       77.68       77.13       76.57    
        76.01       75.43       74.84       74.23       73.60       72.94       72.25       71.53       70.78       70.00    
  35  -1000.0       102.2       102.1       102.0       101.7       101.4       101.0       100.6       100.0       99.41    
        98.74       97.99       97.18       96.29       95.33       94.30       93.30       92.34       91.40       90.50    
        89.62       88.76       87.92       87.10       86.29       85.51       84.76       84.04       83.34       82.67    
        82.03       81.39       80.78       80.18       79.58       79.00       78.42       77.84       77.26       76.68    
        76.09       75.50       74.88       74.26       73.61       72.94       72.24       71.52       70.77       70.00    
  36  -1000.0       102.5       102.4       102.3       102.1       101.7       101.4       100.9       100.4       99.79    
        99.12       98.39       97.58       96.70       95.75       94.72       93.73       92.76       91.82       90.90    
        90.03       89.17       88.33       87.50       86.69       85.90       85.14       84.41       83.70       83.01    
        82.34       81.69       81.05       80.43       79.81       79.20       78.60       78.00       77.40       76.79    
        76.18       75.56       74.94       74.29       73.63       72.95       72.25       71.52       70.77       70.00    
  37  -1000.0       102.8       102.7       102.6       102.3       102.0       101.7       101.2       100.7       100.1    
        99.47       98.74       97.94       97.07       96.13       95.10       94.10       93.13       92.19       91.27    
        90.40       89.54       88.69       87.87       87.05       86.26       85.49       84.75       84.02       83.32    
        82.63       81.96       81.30       80.66       80.02       79.39       78.77       78.15       77.52       76.90    
        76.27       75.64       74.99       74.33       73.66       72.97       72.26       71.53       70.78       70.00    
  38  -1000.0       103.0       103.0       102.8       102.6       102.3       101.9       101.5       101.0       100.4    
        99.78       99.06       98.27       97.41       96.46       95.44       94.45       93.47       92.53       91.60    
        90.73       89.87       89.02       88.19       87.38       86.58       85.80       85.05       84.31       83.59    
        82.89       82.21       81.53       80.87       80.21       79.57       78.92       78.29       77.65       77.01    
        76.36       75.71       75.05       74.38       73.69       72.99       72.27       71.54       70.78       70.00    
  39  -1000.0       103.3       103.2       103.1       102.8       102.6       102.2       101.8       101.3       100.7    
        100.1       99.35       98.56       97.70       96.76       95.75       94.75       93.78       92.83       91.90    
        91.03       90.16       89.32       88.49       87.67       86.87       86.08       85.32       84.57       83.84    
        83.13       82.43       81.74       81.06       80.39       79.73       79.07       78.42       77.76       77.10    
        76.45       75.78       75.11       74.42       73.73       73.02       72.29       71.55       70.79       70.00    
  40  -1000.0       103.5       103.4       103.3       103.0       102.8       102.4       102.0       101.5       100.9    
        100.3       99.60       98.82       97.97       97.03       96.01       95.02       94.05       93.10       92.17    
        91.29       90.43       89.58       88.75       87.93       87.12       86.33       85.56       84.81       84.07    
        83.34       82.63       81.93       81.24       80.56       79.88       79.21       78.54       77.87       77.20    
        76.53       75.85       75.16       74.47       73.76       73.05       72.31       71.56       70.79       70.00    
  41  -1000.0       103.6       103.6       103.4       103.2       103.0       102.6       102.2       101.7       101.1    
        100.5       99.82       99.05       98.20       97.26       96.25       95.26       94.29       93.34       92.40    
        91.53       90.67       89.82       88.98       88.16       87.35       86.56       85.78       85.02       84.27    
        83.53       82.81       82.10       81.40       80.70       80.01       79.33       78.65       77.97       77.28    
        76.60       75.91       75.22       74.51       73.80       73.07       72.33       71.58       70.80       70.00    
  42  -1000.0       103.9       103.7       103.6       103.4       103.1       102.8       102.4       101.9       101.3    
        100.7       100.0       99.24       98.39       97.47       96.46       95.47       94.50       93.54       92.61    
        91.73       90.87       90.02       89.18       88.36       87.55       86.75       85.97       85.20       84.44    
        83.70       82.97       82.25       81.54       80.83       80.13       79.44       78.74       78.05       77.36    
        76.67       75.97       75.27       74.55       73.83       73.10       72.35       71.59       70.81       70.00    
  43  -1000.0       104.0       103.9       103.7       103.5       103.2       102.9       102.5       102.0       101.5    
        100.9       100.2       99.40       98.56       97.64       96.63       95.64       94.67       93.72       92.79    
        91.91       91.05       90.20       89.36       88.53       87.72       86.92       86.13       85.36       84.60    
        83.85       83.11       82.38       81.66       80.94       80.24       79.53       78.83       78.13       77.43    
        76.73       76.02       75.31       74.59       73.86       73.12       72.37       71.60       70.81       70.00    
  44  -1000.0       104.2       104.1       103.9       103.6       103.3       103.0       102.6       102.1       101.6    
        101.0       100.3       99.54       98.70       97.78       96.78       95.79       94.82       93.87       92.94    
        92.06       91.20       90.35       89.51       88.68       87.86       87.06       86.27       85.49       84.73    
        83.97       83.23       82.49       81.76       81.04       80.32       79.61       78.90       78.20       77.49    
        76.78       76.07       75.35       74.62       73.89       73.15       72.39       71.61       70.82       70.00    
  45  -1000.0       104.3       104.2       104.0       103.7       103.4       103.0       102.7       102.2       101.7    
        101.1       100.4       99.65       98.82       97.90       96.90       95.92       94.95       94.00       93.06    
        92.19       91.33       90.47       89.63       88.80       87.98       87.18       86.39       85.60       84.83    
        84.07       83.32       82.58       81.85       81.12       80.40       79.68       78.97       78.25       77.54    
        76.82       76.11       75.38       74.65       73.91       73.16       72.40       71.62       70.82       70.00    
  46  -1000.0     -1000.0       104.2       104.1       103.8       103.5       103.1       102.7       102.2       101.7    
        101.1       100.5       99.73       98.90       97.99       96.99       96.01       95.05       94.09       93.16    
        92.29       91.42       90.57       89.73       88.90       88.08       87.27       86.48       85.69       84.92    
        84.16       83.40       82.66       81.92       81.19       80.46       79.74       79.02       78.30       77.58    
        76.86       76.14       75.41       74.68       73.93       73.18       72.41       71.63       70.83       70.00    
  47  -1000.0     -1000.0     -1000.0       104.0       103.8       103.5       103.2       102.7       102.3       101.7    
        101.2       100.5       99.78       98.96       98.06       97.06       96.08       95.12       94.17       93.23    
        92.36       91.50       90.65       89.80       88.97       88.15       87.34       86.55       85.76       84.98    
        84.22       83.46       82.71       81.97       81.23       80.50       79.78       79.05       78.33       77.61    
        76.89       76.16       75.43       74.69       73.95       73.19       72.42       71.63       70.83       70.00    
  48  -1000.0     -1000.0     -1000.0     -1000.0       103.8       103.5       103.2       102.8       102.2       101.7    
        101.2       100.5       99.82       99.00       98.10       97.11       96.13       95.17       94.22       93.28    
        92.41       91.55       90.69       89.85       89.02       88.20       87.39       86.59       85.80       85.03    
        84.26       83.50       82.75       82.00       81.27       80.53       79.80       79.08       78.35       77.63    
        76.91       76.18       75.44       74.70       73.96       73.20       72.43       71.64       70.83       70.00    
  49  -1000.0     -1000.0     -1000.0     -1000.0     -1000.0       103.5       103.2       102.8       102.3       101.7    
        101.2       100.6       99.83       99.02       98.12       97.13       96.15       95.19       94.24       93.30    
        92.43       91.57       90.72       89.88       89.05       88.22       87.41       86.61       85.83       85.05    
        84.28       83.52       82.77       82.02       81.28       80.55       79.82       79.09       78.37       77.64    
        76.91       76.19       75.45       74.71       73.96       73.20       72.43       71.64       70.83       70.00    
  50  -1000.0     -1000.0     -1000.0     -1000.0     -1000.0     -1000.0     -1000.0     -1000.0     -1000.0     -1000.0    
      -1000.0     -1000.0     -1000.0     -1000.0     -1000.0     -1000.0     -1000.0     -1000.0     -1000.0     -1000.0    
      -1000.0     -1000.0     -1000.0     -1000.0     -1000.0     -1000.0     -1000.0     -1000.0     -1000.0     -1000.0    
      -1000.0     -1000.0     -1000.0     -1000.0     -1000.0     -1000.0     -1000.0     -1000.0     -1000.0     -1000.0    
      -1000.0     -1000.0     -1000.0     -1000.0     -1000.0     -1000.0     -1000.0     -1000.0     -1000.0       70.00    
1
              HEAD IN LAYER   2 AT END OF TIME STEP   1 IN STRESS PERIOD    1
  ---------------------------------------------------------------------------

            1           2           3           4           5           6           7           8           9          10
           11          12          13          14          15          16          17          18          19          20
           21          22          23          24          25          26          27          28          29          30
           31          32          33          34          35          36          37          38          39          40
           41          42          43          44          45          46          47          48          49          50
 ........................................................................................................................
   1  -1000.0     -1000.0     -1000.0     -1000.0     -1000.0     -1000.0     -1000.0     -1000.0     -1000.0     -1000.0    
      -1000.0     -1000.0     -1000.0     -1000.0     -1000.0     -1000.0     -1000.0     -1000.0     -1000.0     -1000.0    
      -1000.0     -1000.0     -1000.0     -1000.0     -1000.0     -1000.0     -1000.0     -1000.0     -1000.0     -1000.0    
      -1000.0     -1000.0     -1000.0     -1000.0     -1000.0     -1000.0     -1000.0     -1000.0     -1000.0     -1000.0    
      -1000.0     -1000.0     -1000.0     -1000.0     -1000.0     -1000.0     -1000.0     -1000.0     -1000.0       70.00    
   2  -1000.0     -1000.0     -1000.0     -1000.0     -1000.0     -1000.0     -1000.0       102.2       101.6       101.0    
        100.5       99.89       99.17       98.36       97.45       96.46       95.49       94.52       93.58       92.65    
        91.71       90.80       89.91       89.04       88.18       87.35       86.53       85.72       84.93       84.15    
        83.38       82.63       81.89       81.16       80.43       79.72       79.01       78.31       77.61       76.92    
        76.23       75.54       74.85       74.17       73.48       72.79       72.10       71.40       70.70       70.00    
   3  -1000.0     -1000.0     -1000.0     -1000.0     -1000.0     -1000.0       102.6       102.1       101.6       101.1    
        100.5       99.88       99.15       98.34       97.43       96.44       95.46       94.50       93.55       92.62    
        91.69       90.78       89.88       89.01       88.16       87.32       86.50       85.70       84.91       84.13    
        83.37       82.61       81.87       81.14       80.42       79.70       79.00       78.29       77.60       76.91    
        76.22       75.53       74.85       74.16       73.47       72.79       72.09       71.40       70.70       70.00    
   4  -1000.0     -1000.0     -1000.0     -1000.0     -1000.0       102.9       102.5       102.0       101.6       101.1    
        100.5       99.85       99.11       98.29       97.39       96.39       95.41       94.45       93.50       92.57    
        91.64       90.73       89.84       88.97       88.11       87.28       86.46       85.66       84.87       84.09    
        83.33       82.58       81.84       81.11       80.39       79.68       78.97       78.27       77.58       76.89    
        76.20       75.52       74.83       74.15       73.46       72.78       72.09       71.39       70.70       70.00    
   5  -1000.0     -1000.0     -1000.0     -1000.0       103.2       102.8       102.4       102.0       101.6       101.1    
        100.5       99.80       99.06       98.23       97.32       96.32       95.34       94.37       93.43       92.49    
        91.56       90.65       89.76       88.89       88.04       87.21       86.39       85.59       84.81       84.03    
        83.27       82.53       81.79       81.06       80.34       79.63       78.93       78.24       77.55       76.86    
        76.18       75.49       74.81       74.13       73.45       72.77       72.08       71.39       70.70       70.00    
   6  -1000.0     -1000.0     -1000.0       103.3       103.1       102.7       102.4       102.0       101.5       101.0    
        100.4       99.72       98.97       98.14       97.22       96.22       95.24       94.27       93.32       92.39    
        91.46       90.55       89.66       88.80       87.95       87.12       86.31       85.51       84.73       83.96    
        83.20       82.46       81.72       81.00       80.29       79.58       78.88       78.19       77.50       76.82    
        76.14       75.46       74.79       74.11       73.43       72.75       72.07       71.38       70.69       70.00    
   7  -1000.0     -1000.0       103.4       103.2       102.9       102.7       102.3       101.9       101.5       100.9    
        100.3       99.62       98.86       98.02       97.10       96.10       95.11       94.14       93.19       92.26    
        91.33       90.42       89.54       88.68       87.83       87.01       86.20       85.40       84.62       83.86    
        83.11       82.37       81.64       80.92       80.21       79.51       78.82       78.13       77.45       76.77    
        76.10       75.43       74.75       74.08       73.41       72.73       72.05       71.37       70.69       70.00    
   8  -1000.0       103.4       103.3       103.1       102.8       102.6       102.2       101.8       101.3       100.8    
        100.2       99.48       98.72       97.87       96.95       95.94       94.95       93.98       93.04       92.11    
        91.18       90.27       89.39       88.53       87.69       86.87       86.07       85.28       84.50       83.74    
        83.00       82.26       81.54       80.83       80.12       79.43       78.74       78.06       77.39       76.71    
        76.05       75.38       74.71       74.05       73.38       72.71       72.04       71.36       70.68       70.00    
   9  -1000.0       103.2       103.1       102.9       102.7       102.4       102.1       101.7       101.2       100.6    
        100.0       99.32       98.55       97.70       96.77       95.76       94.77       93.80       92.85       91.92    
        90.99       90.09       89.22       88.36       87.53       86.71       85.91       85.13       84.36       83.61    
        82.87       82.14       81.43       80.72       80.02       79.33       78.65       77.98       77.31       76.65    
        75.99       75.33       74.67       74.01       73.35       72.69       72.02       71.35       70.68       70.00    
  10  -1000.0       103.0       102.9       102.8       102.6       102.3       101.9       101.5       101.0       100.5    
        99.83       99.12       98.34       97.49       96.56       95.54       94.55       93.58       92.63       91.70    
        90.78       89.88       89.01       88.16       87.33       86.53       85.73       84.96       84.20       83.45    
        82.72       82.00       81.29       80.60       79.91       79.23       78.55       77.89       77.23       76.57    
        75.92       75.27       74.62       73.97       73.32       72.66       72.00       71.34       70.67       70.00    
  11  -1000.0       102.8       102.7       102.6       102.4       102.1       101.7       101.3       100.8       100.2    
        99.61       98.89       98.11       97.25       96.31       95.29       94.30       93.33       92.38       91.46    
        90.54       89.65       88.78       87.94       87.12       86.32       85.53       84.77       84.02       83.28    
        82.56       81.85       81.15       80.46       79.78       79.10       78.44       77.78       77.13       76.49    
        75.84       75.20       74.56       73.92       73.28       72.63       71.98       71.32       70.66       70.00    
  12  -1000.0       102.6       102.5       102.4       102.2       101.9       101.5       101.1       100.6      100.00    
        99.35       98.63       97.84       96.97       96.03       95.01       94.02       93.04       92.10       91.18    
        90.26       89.38       88.52       87.69       86.88       86.08       85.31       84.56       83.81       83.09    
        82.38       81.67       80.98       80.30       79.63       78.97       78.32       77.67       77.03       76.39    
        75.76       75.13       74.50       73.87       73.24       72.60       71.96       71.31       70.66       70.00    
  13  -1000.0       102.4       102.3       102.2       101.9       101.6       101.3       100.8       100.3       99.72    
        99.06       98.33       97.53       96.66       95.71       94.69       93.69       92.72       91.78       90.87    
        89.96       89.08       88.23       87.41       86.61       85.83       85.07       84.32       83.59       82.88    
        82.18       81.49       80.81       80.14       79.48       78.82       78.18       77.55       76.92       76.29    
        75.67       75.06       74.44       73.82       73.20       72.57       71.93       71.29       70.65       70.00    
  14  -1000.0       102.1       102.1       101.9       101.7       101.4       101.0       100.5      100.00       99.40    
        98.73       98.00       97.19       96.31       95.36       94.33       93.34       92.37       91.43       90.52    
        89.62       88.75       87.91       87.10       86.31       85.55       84.80       84.07       83.35       82.65    
        81.96       81.28       80.61       79.96       79.31       78.67       78.03       77.41       76.79       76.18    
        75.58       74.98       74.37       73.77       73.16       72.54       71.91       71.28       70.64       70.00    
  15  -1000.0       101.9       101.8       101.6       101.4       101.1       100.7       100.2       99.66       99.05    
        98.37       97.62       96.81       95.92       94.96       93.93       92.93       91.97       91.03       90.13    
        89.24       88.39       87.56       86.77       85.99       85.24       84.51       83.79       83.09       82.41    
        81.73       81.07       80.41       79.76       79.13       78.50       77.88       77.27       76.66       76.07    
        75.48       74.89       74.31       73.71       73.12       72.51       71.89       71.27       70.64       70.00    
  16  -1000.0       101.6       101.5       101.3       101.1       100.7       100.3       99.84       99.29       98.66    
        97.97       97.20       96.38       95.48       94.52       93.49       92.49       91.53       90.60       89.70    
        88.83       87.99       87.18       86.40       85.65       84.92       84.20       83.50       82.82       82.15    
        81.49       80.84       80.20       79.56       78.94       78.32       77.71       77.11       76.52       75.95    
        75.38       74.81       74.24       73.66       73.08       72.49       71.88       71.26       70.63       70.00    
  17  -1000.0       101.3       101.2       101.0       100.7       100.4       99.96       99.45       98.88       98.23    
        97.52       96.74       95.90       95.00       94.03       93.00       92.00       91.04       90.12       89.23    
        88.38       87.56       86.77       86.01       85.28       84.57       83.87       83.19       82.53       81.88    
        81.23       80.60       79.97       79.35       78.74       78.13       77.54       76.95       76.38       75.82    
        75.27       74.72       74.17       73.62       73.05       72.47       71.87       71.26       70.63       70.00    
  18  -1000.0       101.0       100.9       100.7       100.4       100.0       99.56       99.03       98.43       97.76    
        97.03       96.23       95.38       94.47       93.49       92.45       91.45       90.50       89.59       88.72    
        87.88       87.09       86.33       85.59       84.88       84.20       83.53       82.87       82.23       81.60    
        80.97       80.36       79.75       79.14       78.54       77.95       77.36       76.79       76.23       75.69    
        75.16       74.64       74.12       73.58       73.03       72.46       71.87       71.26       70.64       70.00    
  19  -1000.0       100.7       100.6       100.4       100.0       99.63       99.14       98.57       97.93       97.24    
        96.48       95.67       94.80       93.87       92.89       91.85       90.85       89.90       89.00       88.15    
        87.34       86.58       85.85       85.15       84.47       83.81       83.17       82.54       81.92       81.31    
        80.71       80.12       79.52       78.93       78.34       77.76       77.18       76.62       76.08       75.56    
        75.06       74.57       74.07       73.56       73.03       72.47       71.89       71.28       70.64       70.00    
  20  -1000.0       100.4       100.3       100.0       99.67       99.21       98.67       98.07       97.39       96.67    
        95.88       95.05       94.16       93.22       92.23       91.18       90.18       89.24       88.36       87.53    
        86.76       86.04       85.35       84.69       84.04       83.42       82.80       82.20       81.61       81.03    
        80.45       79.88       79.30       78.73       78.16       77.58       77.01       76.45       75.92       75.44    
        74.97       74.51       74.04       73.56       73.04       72.50       71.92       71.30       70.66       70.00    
  21  -1000.0       100.1       99.99       99.70       99.28       98.77       98.18       97.52       96.80       96.03    
        95.22       94.36       93.45       92.49       91.49       90.44       89.44       88.51       87.64       86.83    
        86.13       85.47       84.84       84.22       83.62       83.02       82.44       81.87       81.31       80.76    
        80.20       79.65       79.10       78.55       77.99       77.42       76.86       76.31       75.78       75.33    
        74.91       74.48       74.04       73.57       73.08       72.54       71.97       71.35       70.69       70.00    
  22  -1000.0       99.95       99.75       99.38       98.89       98.30       97.64       96.92       96.15       95.33    
        94.48       93.59       92.66       91.69       90.68       89.62       88.63       87.70       86.84       86.06    
        85.46       84.89       84.33       83.76       83.20       82.65       82.10       81.57       81.03       80.51    
        79.98       79.45       78.92       78.39       77.85       77.30       76.75       76.20       75.68       75.27    
        74.88       74.48       74.06       73.61       73.13       72.61       72.04       71.41       70.73       70.00    
  23  -1000.0       99.85       99.57       99.09       98.49       97.80       97.05       96.26       95.42       94.55    
        93.66       92.73       91.78       90.80       89.78       88.72       87.72       86.79       85.94       85.19    
        84.76       84.33       83.86       83.36       82.84       82.32       81.81       81.30       80.80       80.30    
        79.79       79.29       78.78       78.27       77.76       77.23       76.71       76.19       75.71       75.29    
        74.90       74.51       74.11       73.68       73.21       72.70       72.13       71.49       70.78       70.00    
  24  -1000.0       99.92       99.48       98.83       98.07       97.26       96.40       95.51       94.61       93.68    
        92.74       91.78       90.80       89.81       88.79       87.74       86.74       85.79       84.91       84.17    
        84.09       83.86       83.50       83.05       82.56       82.07       81.59       81.11       80.63       80.15    
        79.67       79.18       78.70       78.21       77.71       77.21       76.72       76.23       75.78       75.36    
        74.97       74.57       74.17       73.75       73.29       72.79       72.22       71.59       70.85       70.00    
  25  -1000.0       100.3       99.50       98.57       97.61       96.64       95.66       94.67       93.69       92.70    
        91.70       90.71       89.71       88.71       87.70       86.69       85.69       84.69       83.71       82.81    
        83.64       83.64       83.34       82.92       82.45       81.98       81.50       81.03       80.57       80.10    
        79.63       79.16       78.68       78.21       77.73       77.25       76.77       76.31       75.86       75.44    
        75.04       74.64       74.23       73.80       73.35       72.85       72.29       71.65       70.91       70.00    
  26  -1000.0       99.97       99.53       98.88       98.12       97.30       96.45       95.56       94.65       93.72    
        92.78       91.82       90.84       89.85       88.83       87.78       86.78       85.82       84.94       84.21    
        84.14       83.91       83.54       83.09       82.60       82.12       81.63       81.15       80.68       80.20    
        79.73       79.25       78.78       78.30       77.82       77.35       76.88       76.41       75.97       75.54    
        75.12       74.70       74.27       73.82       73.34       72.83       72.25       71.60       70.86       70.00    
  27  -1000.0       99.93       99.66       99.19       98.59       97.90       97.15       96.35       95.52       94.65    
        93.75       92.82       91.87       90.89       89.87       88.81       87.81       86.88       86.02       85.28    
        84.85       84.41       83.94       83.44       82.92       82.40       81.89       81.39       80.89       80.40    
        79.91       79.42       78.94       78.45       77.97       77.48       77.01       76.54       76.08       75.63    
        75.19       74.74       74.29       73.82       73.32       72.78       72.19       71.53       70.80       70.00    
  28  -1000.0       100.1       99.88       99.52       99.03       98.44       97.78       97.06       96.29       95.48    
        94.62       93.73       92.80       91.83       90.81       89.75       88.76       87.83       86.97       86.20    
        85.58       85.01       84.45       83.89       83.33       82.77       82.23       81.70       81.18       80.66    
        80.15       79.64       79.14       78.64       78.14       77.65       77.16       76.67       76.20       75.73    
        75.26       74.79       74.31       73.81       73.28       72.72       72.12       71.46       70.75       70.00    
  29  -1000.0       100.3       100.2       99.87       99.46       98.95       98.36       97.71       96.99       96.22    
        95.40       94.54       93.63       92.68       91.67       90.61       89.62       88.68       87.81       87.01    
        86.30       85.63       85.00       84.38       83.78       83.19       82.61       82.05       81.50       80.95    
        80.42       79.89       79.37       78.85       78.33       77.82       77.32       76.82       76.32       75.83    
        75.33       74.84       74.33       73.80       73.26       72.68       72.07       71.41       70.72       70.00    
  30  -1000.0       100.6       100.5       100.2       99.87       99.43       98.89       98.29       97.62       96.89    
        96.11       95.27       94.38       93.44       92.45       91.39       90.40       89.46       88.57       87.74    
        86.97       86.24       85.55       84.89       84.24       83.62       83.01       82.41       81.83       81.26    
        80.70       80.15       79.61       79.07       78.53       78.00       77.48       76.96       76.44       75.93    
        75.41       74.89       74.36       73.81       73.24       72.65       72.03       71.38       70.70       70.00    
  31  -1000.0       100.9       100.8       100.6       100.3       99.87       99.39       98.83       98.20       97.50    
        96.75       95.93       95.06       94.14       93.15       92.10       91.10       90.15       89.25       88.40    
        87.59       86.82       86.09       85.38       84.70       84.05       83.41       82.78       82.17       81.58    
        81.00       80.42       79.85       79.29       78.74       78.19       77.65       77.10       76.57       76.03    
        75.49       74.94       74.39       73.82       73.24       72.63       72.01       71.35       70.68       70.00    
  32  -1000.0       101.3       101.2       101.0       100.7       100.3       99.84       99.32       98.72       98.05    
        97.32       96.53       95.68       94.76       93.78       92.74       91.74       90.79       89.87       89.00    
        88.16       87.36       86.59       85.86       85.15       84.46       83.79       83.14       82.51       81.89    
        81.28       80.69       80.10       79.52       78.94       78.37       77.81       77.25       76.69       76.13    
        75.57       75.01       74.43       73.85       73.25       72.63       72.00       71.34       70.68       70.00    
  33  -1000.0       101.6       101.5       101.3       101.0       100.7       100.3       99.76       99.19       98.55    
        97.84       97.07       96.23       95.32       94.35       93.32       92.32       91.36       90.44       89.55    
        88.68       87.86       87.07       86.31       85.57       84.86       84.17       83.49       82.84       82.19    
        81.56       80.95       80.34       79.74       79.14       78.55       77.97       77.39       76.81       76.24    
        75.66       75.07       74.48       73.88       73.27       72.64       72.00       71.34       70.67       70.00    
  34  -1000.0       101.9       101.8       101.7       101.4       101.1       100.7       100.2       99.63       99.00    
        98.31       97.55       96.73       95.83       94.87       93.83       92.84       91.87       90.94       90.05    
        89.16       88.32       87.51       86.73       85.97       85.23       84.52       83.83       83.15       82.48    
        81.83       81.20       80.57       79.95       79.34       78.73       78.13       77.53       76.93       76.34    
        75.74       75.14       74.53       73.92       73.29       72.65       72.00       71.34       70.67       70.00    
  35  -1000.0       102.2       102.1       102.0       101.7       101.4       101.0       100.6       100.0       99.41    
        98.74       97.99       97.18       96.29       95.33       94.30       93.30       92.34       91.40       90.50    
        89.60       88.74       87.92       87.11       86.34       85.59       84.85       84.14       83.44       82.76    
        82.09       81.43       80.79       80.15       79.52       78.90       78.28       77.67       77.05       76.44    
        75.83       75.21       74.59       73.96       73.32       72.67       72.02       71.35       70.68       70.00    
  36  -1000.0       102.5       102.4       102.3       102.1       101.7       101.4       100.9       100.4       99.79    
        99.12       98.39       97.58       96.70       95.75       94.72       93.73       92.76       91.82       90.90    
        90.00       89.13       88.29       87.47       86.68       85.91       85.16       84.43       83.72       83.02    
        82.33       81.66       81.00       80.34       79.70       79.06       78.43       77.79       77.17       76.54    
        75.91       75.28       74.64       74.00       73.35       72.70       72.03       71.36       70.68       70.00    
  37  -1000.0       102.8       102.7       102.6       102.3       102.0       101.7       101.2       100.7       100.1    
        99.47       98.74       97.94       97.07       96.13       95.10       94.10       93.13       92.19       91.27    
        90.36       89.48       88.63       87.80       87.00       86.21       85.45       84.70       83.97       83.26    
        82.56       81.87       81.19       80.53       79.87       79.21       78.56       77.92       77.28       76.63    
        75.99       75.35       74.70       74.05       73.39       72.72       72.05       71.37       70.69       70.00    
  38  -1000.0       103.0       103.0       102.8       102.6       102.3       101.9       101.5       101.0       100.4    
        99.78       99.06       98.27       97.41       96.46       95.44       94.45       93.47       92.53       91.60    
        90.69       89.80       88.94       88.10       87.28       86.49       85.71       84.95       84.21       83.48    
        82.77       82.07       81.38       80.70       80.02       79.35       78.69       78.03       77.38       76.73    
        76.07       75.42       74.76       74.09       73.43       72.75       72.07       71.39       70.69       70.00    
  39  -1000.0       103.3       103.2       103.1       102.8       102.6       102.2       101.8       101.3       100.7    
        100.1       99.35       98.56       97.70       96.76       95.75       94.75       93.78       92.83       91.90    
        90.98       90.08       89.21       88.37       87.54       86.74       85.95       85.18       84.43       83.69    
        82.96       82.25       81.55       80.85       80.17       79.49       78.81       78.14       77.48       76.81    
        76.15       75.48       74.81       74.14       73.46       72.78       72.09       71.40       70.70       70.00    
  40  -1000.0       103.5       103.4       103.3       103.0       102.8       102.4       102.0       101.5       100.9    
        100.3       99.60       98.82       97.96       97.03       96.01       95.02       94.05       93.10       92.17    
        91.24       90.34       89.46       88.61       87.78       86.96       86.17       85.39       84.62       83.87    
        83.14       82.41       81.70       80.99       80.30       79.61       78.92       78.24       77.57       76.89    
        76.22       75.54       74.86       74.18       73.50       72.81       72.11       71.41       70.71       70.00    
  41  -1000.0       103.6       103.6       103.4       103.2       103.0       102.6       102.2       101.7       101.1    
        100.5       99.82       99.05       98.19       97.26       96.25       95.26       94.29       93.34       92.40    
        91.47       90.57       89.69       88.83       87.99       87.16       86.36       85.57       84.80       84.04    
        83.30       82.56       81.84       81.12       80.42       79.72       79.02       78.33       77.65       76.96    
        76.28       75.60       74.91       74.22       73.53       72.83       72.13       71.42       70.71       70.00    
  42  -1000.0       103.9       103.7       103.6       103.4       103.1       102.8       102.4       101.9       101.3    
        100.7       100.0       99.24       98.39       97.47       96.46       95.47       94.50       93.54       92.61    
        91.68       90.77       89.88       89.02       88.17       87.34       86.53       85.74       84.96       84.19    
        83.44       82.70       81.96       81.24       80.53       79.82       79.12       78.42       77.72       77.03    
        76.34       75.65       74.95       74.26       73.56       72.86       72.15       71.44       70.72       70.00    
  43  -1000.0       104.0       103.9       103.7       103.5       103.2       102.9       102.5       102.0       101.5    
        100.9       100.2       99.40       98.56       97.64       96.63       95.64       94.67       93.72       92.79    
        91.85       90.94       90.05       89.18       88.33       87.50       86.68       85.88       85.09       84.32    
        83.56       82.81       82.07       81.34       80.62       79.90       79.19       78.49       77.79       77.09    
        76.39       75.69       74.99       74.29       73.58       72.88       72.16       71.45       70.72       70.00    
  44  -1000.0     -1000.0       104.1       103.9       103.6       103.3       103.0       102.6       102.1       101.6    
        101.0       100.3       99.54       98.70       97.78       96.78       95.79       94.82       93.87       92.94    
        92.00       91.09       90.19       89.32       88.47       87.63       86.81       86.00       85.21       84.43    
        83.67       82.91       82.17       81.43       80.70       79.98       79.26       78.55       77.84       77.14    
        76.43       75.73       75.03       74.32       73.61       72.89       72.18       71.45       70.73       70.00    
  45  -1000.0     -1000.0     -1000.0       104.0       103.7       103.4       103.0       102.7       102.2       101.7    
        101.1       100.4       99.65       98.82       97.90       96.90       95.92       94.95       94.00       93.06    
        92.12       91.21       90.31       89.44       88.58       87.74       86.91       86.10       85.31       84.53    
        83.75       82.99       82.24       81.50       80.77       80.04       79.32       78.60       77.89       77.18    
        76.47       75.76       75.05       74.34       73.63       72.91       72.19       71.46       70.73       70.00    
  46  -1000.0     -1000.0     -1000.0     -1000.0       103.8       103.5       103.1       102.7       102.2       101.7    
        101.1       100.5       99.73       98.90       97.99       96.99       96.01       95.05       94.09       93.16    
        92.22       91.30       90.41       89.53       88.67       87.83       87.00       86.19       85.39       84.60    
        83.82       83.06       82.31       81.56       80.82       80.09       79.37       78.65       77.93       77.22    
        76.50       75.79       75.08       74.36       73.64       72.92       72.20       71.47       70.74       70.00    
  47  -1000.0     -1000.0     -1000.0     -1000.0     -1000.0       103.5       103.2       102.7       102.3       101.7    
        101.2       100.5       99.78       98.96       98.06       97.06       96.08       95.12       94.17       93.23    
        92.29       91.38       90.48       89.60       88.74       87.89       87.06       86.25       85.44       84.65    
        83.88       83.11       82.35       81.60       80.86       80.13       79.40       78.68       77.96       77.24    
        76.53       75.81       75.09       74.38       73.66       72.93       72.21       71.47       70.74       70.00    
  48  -1000.0     -1000.0     -1000.0     -1000.0     -1000.0     -1000.0       103.2       102.8       102.2       101.7    
        101.2       100.5       99.82       99.00       98.10       97.11       96.13       95.17       94.22       93.28    
        92.34       91.42       90.53       89.65       88.78       87.94       87.10       86.29       85.48       84.69    
        83.91       83.14       82.38       81.63       80.89       80.16       79.43       78.70       77.98       77.26    
        76.54       75.82       75.11       74.39       73.67       72.94       72.21       71.48       70.74       70.00    
  49  -1000.0     -1000.0     -1000.0     -1000.0     -1000.0     -1000.0     -1000.0       102.8       102.3       101.7    
        101.2       100.6       99.83       99.02       98.12       97.13       96.15       95.19       94.24       93.30    
        92.37       91.45       90.55       89.67       88.80       87.96       87.13       86.31       85.50       84.71    
        83.93       83.16       82.40       81.65       80.90       80.17       79.44       78.71       77.99       77.27    
        76.55       75.83       75.11       74.39       73.67       72.94       72.21       71.48       70.74       70.00    
  50  -1000.0     -1000.0     -1000.0     -1000.0     -1000.0     -1000.0     -1000.0     -1000.0     -1000.0     -1000.0    
      -1000.0     -1000.0     -1000.0     -1000.0     -1000.0     -1000.0     -1000.0     -1000.0     -1000.0     -1000.0    
      -1000.0     -1000.0     -1000.0     -1000.0     -1000.0     -1000.0     -1000.0     -1000.0     -1000.0     -1000.0    
      -1000.0     -1000.0     -1000.0     -1000.0     -1000.0     -1000.0     -1000.0     -1000.0     -1000.0     -1000.0    
      -1000.0     -1000.0     -1000.0     -1000.0     -1000.0     -1000.0     -1000.0     -1000.0     -1000.0       70.00    
1
              HEAD IN LAYER   3 AT END OF TIME STEP   1 IN STRESS PERIOD    1
  ---------------------------------------------------------------------------

            1           2           3           4           5           6           7           8           9          10
           11          12          13          14          15          16          17          18          19          20
           21          22          23          24          25          26          27          28          29          30
           31          32          33          34          35          36          37          38          39          40
[...]
        85.06       84.91       84.68       84.35       83.96       83.51       83.01       82.47       81.89       81.29    
        80.65       79.99       79.29       78.55       77.77       76.91       75.96       74.89       73.81       73.74    
        73.65       73.45       73.15       72.79       72.39       71.94       71.48       71.00       70.50       70.00    
  24  -1000.0       99.92       99.48       98.83       98.07       97.26       96.40       95.51       94.61       93.68    
        92.74       91.78       90.80       89.81       88.79       87.74       86.74       85.79       84.91       84.17    
        84.45       84.55       84.44       84.20       83.85       83.43       82.95       82.42       81.86       81.26    
        80.64       79.99       79.31       78.59       77.84       77.05       76.22       75.38       74.64       74.23    
        73.92       73.60       73.24       72.85       72.42       71.97       71.50       71.01       70.51       70.00    
  25  -1000.0       100.3       99.50       98.57       97.61       96.64       95.66       94.68       93.69       92.70    
        91.71       90.71       89.71       88.71       87.71       86.69       85.69       84.69       83.71       82.82    
        84.04       84.38       84.36       84.15       83.82       83.41       82.94       82.42       81.87       81.28    
        80.67       80.03       79.37       78.68       77.96       77.23       76.48       75.76       75.11       74.61    
        74.18       73.77       73.36       72.93       72.48       72.01       71.52       71.02       70.51       70.00    
  26  -1000.0       99.97       99.53       98.88       98.12       97.30       96.45       95.56       94.65       93.72    
        92.78       91.82       90.84       89.85       88.83       87.78       86.78       85.82       84.94       84.21    
        84.50       84.59       84.49       84.24       83.90       83.48       83.00       82.48       81.93       81.34    
        80.74       80.11       79.45       78.79       78.10       77.41       76.72       76.06       75.45       74.90    
        74.41       73.95       73.49       73.02       72.55       72.06       71.55       71.04       70.52       70.00    
  27  -1000.0       99.93       99.66       99.19       98.59       97.90       97.15       96.35       95.52       94.65    
        93.75       92.82       91.87       90.89       89.87       88.81       87.81       86.88       86.02       85.28    
        85.15       85.00       84.76       84.44       84.05       83.61       83.11       82.58       82.02       81.44    
        80.83       80.21       79.57       78.92       78.26       77.59       76.94       76.30       75.70       75.14    
        74.61       74.11       73.61       73.12       72.62       72.11       71.59       71.06       70.53       70.00    
  28  -1000.0       100.1       99.88       99.52       99.03       98.44       97.78       97.06       96.29       95.48    
        94.62       93.73       92.80       91.83       90.81       89.75       88.76       87.83       86.97       86.20    
        85.83       85.49       85.13       84.73       84.28       83.80       83.28       82.73       82.16       81.57    
        80.96       80.34       79.70       79.06       78.41       77.77       77.13       76.51       75.91       75.34    
        74.79       74.26       73.73       73.21       72.69       72.16       71.63       71.09       70.55       70.00    
  29  -1000.0       100.3       100.2       99.87       99.46       98.95       98.36       97.71       96.99       96.22    
        95.40       94.54       93.63       92.67       91.67       90.61       89.62       88.68       87.81       87.01    
        86.49       86.02       85.55       85.06       84.56       84.03       83.48       82.91       82.32       81.72    
        81.11       80.48       79.85       79.21       78.57       77.94       77.31       76.69       76.09       75.51    
        74.94       74.39       73.84       73.30       72.76       72.21       71.66       71.11       70.56       70.00    
  30  -1000.0       100.6       100.5       100.2       99.87       99.43       98.89       98.29       97.62       96.89    
        96.11       95.27       94.38       93.44       92.45       91.39       90.40       89.46       88.57       87.74    
        87.12       86.54       85.98       85.42       84.86       84.29       83.71       83.11       82.51       81.89    
        81.27       80.64       80.01       79.37       78.73       78.10       77.47       76.86       76.25       75.66    
        75.08       74.51       73.94       73.38       72.82       72.26       71.70       71.14       70.57       70.00    
  31  -1000.0       100.9       100.8       100.6       100.3       99.87       99.39       98.83       98.20       97.50    
        96.75       95.93       95.06       94.14       93.15       92.10       91.10       90.15       89.25       88.40    
        87.70       87.04       86.41       85.80       85.19       84.57       83.96       83.34       82.71       82.08    
        81.45       80.81       80.17       79.53       78.89       78.26       77.63       77.01       76.40       75.80    
        75.20       74.62       74.04       73.46       72.89       72.31       71.74       71.16       70.58       70.00    
  32  -1000.0       101.3       101.2       101.0       100.7       100.3       99.84       99.32       98.72       98.05    
        97.32       96.53       95.68       94.76       93.78       92.74       91.74       90.79       89.87       89.00    
        88.24       87.53       86.84       86.17       85.51       84.86       84.22       83.57       82.93       82.28    
        81.63       80.98       80.34       79.69       79.05       78.41       77.78       77.15       76.53       75.92    
        75.32       74.72       74.13       73.54       72.95       72.36       71.77       71.18       70.59       70.00    
  33  -1000.0       101.6       101.5       101.3       101.0       100.7       100.3       99.76       99.19       98.55    
        97.84       97.07       96.23       95.32       94.35       93.32       92.32       91.36       90.44       89.55    
        88.74       87.98       87.24       86.53       85.84       85.16       84.48       83.81       83.14       82.48    
        81.82       81.16       80.50       79.85       79.20       78.56       77.92       77.28       76.66       76.04    
        75.42       74.81       74.21       73.61       73.00       72.40       71.80       71.20       70.60       70.00    
  34  -1000.0       101.9       101.8       101.7       101.4       101.1       100.7       100.2       99.63       99.00    
        98.31       97.55       96.73       95.83       94.87       93.83       92.84       91.87       90.94       90.05    
        89.21       88.40       87.63       86.88       86.15       85.44       84.74       84.05       83.36       82.68    
        82.01       81.34       80.67       80.01       79.35       78.70       78.05       77.41       76.78       76.15    
        75.52       74.90       74.28       73.67       73.06       72.45       71.83       71.22       70.61       70.00    
  35  -1000.0       102.2       102.1       102.0       101.7       101.4       101.0       100.6       100.0       99.41    
        98.74       97.99       97.18       96.29       95.33       94.30       93.30       92.34       91.40       90.50    
        89.63       88.79       87.99       87.21       86.46       85.72       84.99       84.28       83.58       82.88    
        82.19       81.51       80.83       80.16       79.49       78.83       78.18       77.53       76.89       76.25    
        75.61       74.98       74.36       73.73       73.11       72.49       71.86       71.24       70.62       70.00    
  36  -1000.0       102.5       102.4       102.3       102.1       101.7       101.4       100.9       100.4       99.79    
        99.12       98.39       97.58       96.70       95.75       94.72       93.73       92.76       91.82       90.90    
        90.01       89.15       88.33       87.52       86.75       85.98       85.24       84.51       83.79       83.07    
        82.37       81.68       80.99       80.31       79.63       78.96       78.30       77.64       76.99       76.34    
        75.70       75.06       74.42       73.79       73.15       72.52       71.89       71.26       70.63       70.00    
  37  -1000.0       102.8       102.7       102.6       102.3       102.0       101.7       101.2       100.7       100.1    
        99.47       98.74       97.94       97.07       96.13       95.10       94.10       93.13       92.19       91.27    
        90.36       89.48       88.64       87.81       87.01       86.23       85.47       84.72       83.99       83.26    
        82.55       81.84       81.14       80.45       79.76       79.09       78.41       77.75       77.09       76.43    
        75.78       75.13       74.48       73.84       73.20       72.56       71.92       71.28       70.64       70.00    
  38  -1000.0       103.0       103.0       102.8       102.6       102.3       101.9       101.5       101.0       100.4    
        99.78       99.06       98.27       97.41       96.46       95.44       94.45       93.47       92.53       91.60    
        90.68       89.79       88.92       88.08       87.26       86.47       85.69       84.92       84.17       83.44    
        82.71       81.99       81.28       80.58       79.89       79.20       78.52       77.85       77.18       76.51    
        75.85       75.20       74.54       73.89       73.24       72.59       71.94       71.29       70.65       70.00    
  39  -1000.0       103.3       103.2       103.1       102.8       102.6       102.2       101.8       101.3       100.7    
        100.1       99.35       98.56       97.70       96.76       95.75       94.75       93.78       92.83       91.90    
        90.97       90.06       89.18       88.33       87.50       86.68       85.89       85.11       84.35       83.60    
        82.86       82.13       81.42       80.71       80.00       79.31       78.62       77.94       77.26       76.59    
        75.92       75.26       74.59       73.93       73.28       72.62       71.96       71.31       70.65       70.00    
  40  -1000.0       103.5       103.4       103.3       103.0       102.8       102.4       102.0       101.5       100.9    
        100.3       99.60       98.82       97.96       97.03       96.01       95.02       94.05       93.10       92.17    
        91.22       90.30       89.41       88.55       87.70       86.88       86.08       85.29       84.51       83.75    
        83.00       82.27       81.54       80.82       80.11       79.41       78.71       78.02       77.34       76.66    
        75.98       75.31       74.64       73.98       73.31       72.65       71.99       71.32       70.66       70.00    
  41  -1000.0       103.6       103.6       103.4       103.2       102.9       102.6       102.2       101.7       101.1    
        100.5       99.82       99.05       98.19       97.26       96.25       95.26       94.29       93.34       92.40    
        91.45       90.52       89.62       88.75       87.89       87.06       86.24       85.44       84.66       83.89    
        83.13       82.39       81.65       80.93       80.21       79.50       78.80       78.10       77.41       76.72    
        76.04       75.36       74.69       74.01       73.34       72.67       72.00       71.34       70.67       70.00    
  42  -1000.0     -1000.0       103.7       103.6       103.4       103.1       102.8       102.4       101.9       101.3    
        100.7       100.0       99.24       98.39       97.47       96.46       95.47       94.50       93.54       92.61    
        91.65       90.72       89.81       88.92       88.06       87.22       86.39       85.59       84.79       84.02    
        83.25       82.50       81.75       81.02       80.30       79.58       78.87       78.17       77.47       76.78    
        76.09       75.41       74.73       74.05       73.37       72.70       72.02       71.35       70.67       70.00    
  43  -1000.0     -1000.0     -1000.0       103.7       103.5       103.2       102.9       102.5       102.0       101.5    
        100.9       100.2       99.40       98.56       97.64       96.63       95.64       94.67       93.72       92.79    
        91.82       90.88       89.97       89.08       88.21       87.36       86.52       85.71       84.91       84.13    
        83.35       82.59       81.84       81.11       80.38       79.65       78.94       78.23       77.53       76.83    
        76.14       75.45       74.76       74.08       73.40       72.71       72.04       71.36       70.68       70.00    
  44  -1000.0     -1000.0     -1000.0     -1000.0       103.6       103.3       103.0       102.6       102.1       101.6    
        101.0       100.3       99.54       98.70       97.78       96.78       95.79       94.82       93.87       92.94    
        91.97       91.02       90.11       89.21       88.33       87.48       86.64       85.82       85.01       84.22    
        83.44       82.68       81.92       81.18       80.44       79.72       79.00       78.28       77.58       76.87    
        76.18       75.48       74.79       74.10       73.42       72.73       72.05       71.36       70.68       70.00    
  45  -1000.0     -1000.0     -1000.0     -1000.0     -1000.0       103.4       103.0       102.7       102.2       101.7    
        101.1       100.4       99.65       98.81       97.90       96.90       95.92       94.95       94.00       93.06    
        92.09       91.14       90.22       89.32       88.44       87.57       86.73       85.91       85.10       84.30    
        83.52       82.75       81.99       81.24       80.50       79.77       79.04       78.33       77.62       76.91    
        76.21       75.51       74.82       74.12       73.43       72.75       72.06       71.37       70.69       70.00    
  46  -1000.0     -1000.0     -1000.0     -1000.0     -1000.0     -1000.0       103.1       102.7       102.2       101.7    
        101.1       100.5       99.73       98.90       97.99       96.99       96.01       95.05       94.09       93.16    
        92.19       91.24       90.31       89.40       88.52       87.65       86.81       85.98       85.16       84.36    
        83.58       82.80       82.04       81.29       80.54       79.81       79.08       78.36       77.65       76.94    
        76.24       75.53       74.84       74.14       73.45       72.76       72.07       71.38       70.69       70.00    
  47  -1000.0     -1000.0     -1000.0     -1000.0     -1000.0     -1000.0     -1000.0       102.7       102.3       101.7    
        101.2       100.5       99.78       98.96       98.06       97.06       96.08       95.12       94.17       93.23    
        92.26       91.30       90.38       89.47       88.58       87.71       86.86       86.03       85.21       84.41    
        83.62       82.85       82.08       81.32       80.58       79.84       79.11       78.39       77.67       76.96    
        76.26       75.55       74.85       74.15       73.46       72.77       72.07       71.38       70.69       70.00    
  48  -1000.0     -1000.0     -1000.0     -1000.0     -1000.0     -1000.0     -1000.0     -1000.0       102.2       101.7    
        101.2       100.5       99.82       99.00       98.10       97.11       96.13       95.17       94.22       93.28    
        92.30       91.35       90.42       89.51       88.62       87.75       86.90       86.07       85.25       84.44    
        83.65       82.87       82.11       81.35       80.60       79.86       79.13       78.41       77.69       76.98    
        76.27       75.56       74.86       74.16       73.47       72.77       72.08       71.38       70.69       70.00    
  49  -1000.0     -1000.0     -1000.0     -1000.0     -1000.0     -1000.0     -1000.0     -1000.0     -1000.0       101.7    
        101.2       100.6       99.83       99.02       98.12       97.13       96.15       95.19       94.24       93.30    
        92.33       91.37       90.44       89.53       88.64       87.77       86.92       86.08       85.26       84.46    
        83.67       82.89       82.12       81.36       80.61       79.87       79.14       78.42       77.70       76.98    
        76.27       75.57       74.87       74.17       73.47       72.77       72.08       71.39       70.69       70.00    
  50  -1000.0     -1000.0     -1000.0     -1000.0     -1000.0     -1000.0     -1000.0     -1000.0     -1000.0     -1000.0    
      -1000.0     -1000.0     -1000.0     -1000.0     -1000.0     -1000.0     -1000.0     -1000.0     -1000.0     -1000.0    
      -1000.0     -1000.0     -1000.0     -1000.0     -1000.0     -1000.0     -1000.0     -1000.0     -1000.0     -1000.0    
      -1000.0     -1000.0     -1000.0     -1000.0     -1000.0     -1000.0     -1000.0     -1000.0     -1000.0     -1000.0    
      -1000.0     -1000.0     -1000.0     -1000.0     -1000.0     -1000.0     -1000.0     -1000.0     -1000.0       70.00    

 HEAD WILL BE SAVED ON UNIT   51 AT END OF TIME STEP    1, STRESS PERIOD    1

 DRAWDOWN WILL BE SAVED ON UNIT   52 AT END OF TIME STEP    1, STRESS PERIOD    1
1
  VOLUMETRIC BUDGET FOR ENTIRE MODEL AT END OF TIME STEP    1, STRESS PERIOD   1
  ------------------------------------------------------------------------------

     CUMULATIVE VOLUMES      L**3       RATES FOR THIS TIME STEP      L**3/T
     ------------------                 ------------------------

           IN:                                      IN:
           ---                                      ---
             STORAGE =           0.0000               STORAGE =           0.0000
       CONSTANT HEAD =           0.0000         CONSTANT HEAD =           0.0000
               WELLS =         375.0000                 WELLS =         375.0000
       RIVER LEAKAGE =        3380.9456         RIVER LEAKAGE =        3380.9456
                  ET =           0.0000                    ET =           0.0000
            RECHARGE =       32599.9980              RECHARGE =       32599.9980

            TOTAL IN =       36355.9453              TOTAL IN =       36355.9453

          OUT:                                     OUT:
          ----                                     ----
             STORAGE =           0.0000               STORAGE =           0.0000
       CONSTANT HEAD =       12958.8291         CONSTANT HEAD =       12958.8291
               WELLS =        1500.0000                 WELLS =        1500.0000
       RIVER LEAKAGE =       21318.4141         RIVER LEAKAGE =       21318.4141
                  ET =         578.6776                    ET =         578.6776
            RECHARGE =           0.0000              RECHARGE =           0.0000

           TOTAL OUT =       36355.9180             TOTAL OUT =       36355.9180

            IN - OUT =       2.7344E-02              IN - OUT =       2.7344E-02

 PERCENT DISCREPANCY =           0.00     PERCENT DISCREPANCY =           0.00






         TIME SUMMARY AT END OF TIME STEP    1 IN STRESS PERIOD    1
                    SECONDS     MINUTES      HOURS       DAYS        YEARS
                    -----------------------------------------------------------
   TIME STEP LENGTH  86400.      1440.0      24.000      1.0000     2.73785E-03
 STRESS PERIOD TIME  86400.      1440.0      24.000      1.0000     2.73785E-03
         TOTAL TIME  86400.      1440.0      24.000      1.0000     2.73785E-03
1

 Run end date and time (yyyy/mm/dd hh:mm:ss): 2026/02/25  4:39:47
 Elapsed run time: 12.663 Seconds

