                                  MODFLOW-2005     
      U.S. GEOLOGICAL SURVEY MODULAR FINITE-DIFFERENCE GROUND-WATER FLOW MODEL
                            VERSION 1.12.00 2/3/2017

 LIST FILE: static_ensemble_3133111.list
                         UNIT    2

 OPENING static_ensemble_3133111.dis
 FILE TYPE:DIS   UNIT   11   STATUS:OLD    
 FORMAT:FORMATTED              ACCESS:SEQUENTIAL          

 OPENING static_ensemble_3133111.bas
 FILE TYPE:BAS6   UNIT   13   STATUS:OLD    
 FORMAT:FORMATTED              ACCESS:SEQUENTIAL          

 OPENING static_ensemble_3133111.lpf
 FILE TYPE:LPF   UNIT   15   STATUS:OLD    
 FORMAT:FORMATTED              ACCESS:SEQUENTIAL          

 OPENING static_ensemble_3133111.evt
 FILE TYPE:EVT   UNIT   22   STATUS:OLD    
 FORMAT:FORMATTED              ACCESS:SEQUENTIAL          

 OPENING static_ensemble_3133111.rch
 FILE TYPE:RCH   UNIT   19   STATUS:OLD    
 FORMAT:FORMATTED              ACCESS:SEQUENTIAL          

 OPENING static_ensemble_3133111.riv
 FILE TYPE:RIV   UNIT   18   STATUS:OLD    
 FORMAT:FORMATTED              ACCESS:SEQUENTIAL          

 OPENING static_ensemble_3133111.wel
 FILE TYPE:WEL   UNIT   20   STATUS:OLD    
 FORMAT:FORMATTED              ACCESS:SEQUENTIAL          

 OPENING static_ensemble_3133111.oc
 FILE TYPE:OC   UNIT   14   STATUS:OLD    
 FORMAT:FORMATTED              ACCESS:SEQUENTIAL          

 OPENING static_ensemble_3133111.pcg
 FILE TYPE:PCG   UNIT   27   STATUS:OLD    
 FORMAT:FORMATTED              ACCESS:SEQUENTIAL          

 OPENING static_ensemble_3133111.cbc
 FILE TYPE:DATA(BINARY)   UNIT   53   STATUS:REPLACE
 FORMAT:UNFORMATTED            ACCESS:STREAM              

 OPENING static_ensemble_3133111.hds
 FILE TYPE:DATA(BINARY)   UNIT   51   STATUS:REPLACE
 FORMAT:UNFORMATTED            ACCESS:STREAM              

 OPENING static_ensemble_3133111.ddn
 FILE TYPE:DATA(BINARY)   UNIT   52   STATUS:REPLACE
 FORMAT:UNFORMATTED            ACCESS:STREAM              

 BAS -- BASIC PACKAGE, VERSION 7, 5/2/2005 INPUT READ FROM UNIT   13
 
 MODFLOW was compiled using mixed precision
 Precision of REAL variables:           6
 Precision of DOUBLE PRECISION variables:          15

 DISCRETIZATION INPUT DATA READ FROM UNIT   11
 # DIS package for MODFLOW-2005 generated by Flopy 3.9.5
    3 LAYERS        50 ROWS        50 COLUMNS
    1 STRESS PERIOD(S) IN SIMULATION
 MODEL TIME UNIT IS DAYS
 MODEL LENGTH UNIT IS METERS
  Confining bed flag for each layer:
   0   0   0

                     DELR =   1000.00    

                     DELC =   1000.00    



           TOP ELEVATION OF LAYER 1
 READING ON UNIT   11 WITH FORMAT: (50E15.6)           



             MODEL LAYER BOTTOM EL. FOR LAYER   1
 READING ON UNIT   11 WITH FORMAT: (50E15.6)           



             MODEL LAYER BOTTOM EL. FOR LAYER   2
 READING ON UNIT   11 WITH FORMAT: (50E15.6)           



             MODEL LAYER BOTTOM EL. FOR LAYER   3
 READING ON UNIT   11 WITH FORMAT: (50E15.6)           


 STRESS PERIOD     LENGTH       TIME STEPS     MULTIPLIER FOR DELT    SS FLAG
 ----------------------------------------------------------------------------
        1         1.000000          1                    1.000         SS

 STEADY-STATE SIMULATION



 
 # BAS6 package for MODFLOW-2005 generated by Flopy 3.9.5                        
 THE FREE FORMAT OPTION HAS BEEN SELECTED



                     BOUNDARY ARRAY FOR LAYER   1
 READING ON UNIT   13 WITH FORMAT: (50I10)             



                     BOUNDARY ARRAY FOR LAYER   2
 READING ON UNIT   13 WITH FORMAT: (50I10)             



                     BOUNDARY ARRAY FOR LAYER   3
 READING ON UNIT   13 WITH FORMAT: (50I10)             

 AQUIFER HEAD WILL BE SET TO  -999.99     AT ALL NO-FLOW NODES (IBOUND=0).



                       INITIAL HEAD FOR LAYER   1
 READING ON UNIT   13 WITH FORMAT: (50E15.6)           



                       INITIAL HEAD FOR LAYER   2
 READING ON UNIT   13 WITH FORMAT: (50E15.6)           



                       INITIAL HEAD FOR LAYER   3
 READING ON UNIT   13 WITH FORMAT: (50E15.6)           
 # OC package for MODFLOW-2005 generated by Flopy 3.9.5

 OUTPUT CONTROL IS SPECIFIED ONLY AT TIME STEPS FOR WHICH OUTPUT IS DESIRED
 COMPACT CELL-BY-CELL BUDGET FILES WILL BE WRITTEN
 AUXILIARY DATA WILL BE SAVED IN CELL-BY-CELL BUDGET FILES
 HEAD PRINT FORMAT CODE IS   0    DRAWDOWN PRINT FORMAT CODE IS   0
 HEADS WILL BE SAVED ON UNIT   51    DRAWDOWNS WILL BE SAVED ON UNIT   52

 LPF -- LAYER-PROPERTY FLOW PACKAGE, VERSION 7, 5/2/2005
         INPUT READ FROM UNIT   15
 # LPF package for MODFLOW-2005 generated by Flopy 3.9.5
 CELL-BY-CELL FLOWS WILL BE SAVED ON UNIT   53
 HEAD AT CELLS THAT CONVERT TO DRY= -1.00000E+30
 No named parameters
 STORAGECOEFFICIENT OPTION:
 Read storage coefficient rather than specific storage

   LAYER FLAGS:
 LAYER       LAYTYP        LAYAVG         CHANI        LAYVKA        LAYWET
 ---------------------------------------------------------------------------
    1             1             0     1.000E+00             0             0
    2             1             0     1.000E+00             0             0
    3             1             0     1.000E+00             0             0

   INTERPRETATION OF LAYER FLAGS:
                        INTERBLOCK     HORIZONTAL    DATA IN
         LAYER TYPE   TRANSMISSIVITY   ANISOTROPY   ARRAY VKA   WETTABILITY
 LAYER      (LAYTYP)      (LAYAVG)       (CHANI)      (LAYVKA)      (LAYWET)
 ---------------------------------------------------------------------------
    1   CONVERTIBLE      HARMONIC     1.000E+00    VERTICAL K  NON-WETTABLE
    2   CONVERTIBLE      HARMONIC     1.000E+00    VERTICAL K  NON-WETTABLE
    3   CONVERTIBLE      HARMONIC     1.000E+00    VERTICAL K  NON-WETTABLE

 WETTING CAPABILITY IS NOT ACTIVE IN ANY LAYER



              HYD. COND. ALONG ROWS FOR LAYER   1
 READING ON UNIT   15 WITH FORMAT: (50E15.6)           



                VERTICAL HYD. COND. FOR LAYER   1
 READING ON UNIT   15 WITH FORMAT: (50E15.6)           



              HYD. COND. ALONG ROWS FOR LAYER   2
 READING ON UNIT   15 WITH FORMAT: (50E15.6)           



                VERTICAL HYD. COND. FOR LAYER   2
 READING ON UNIT   15 WITH FORMAT: (50E15.6)           



              HYD. COND. ALONG ROWS FOR LAYER   3
 READING ON UNIT   15 WITH FORMAT: (50E15.6)           



                VERTICAL HYD. COND. FOR LAYER   3
 READING ON UNIT   15 WITH FORMAT: (50E15.6)           

 WEL -- WELL PACKAGE, VERSION 7, 5/2/2005 INPUT READ FROM UNIT   20
 # WEL package for MODFLOW-2005 generated by Flopy 3.9.5
 No named parameters
 MAXIMUM OF      3 ACTIVE WELLS AT ONE TIME


     0 Well parameters

 RIV -- RIVER PACKAGE, VERSION 7, 5/2/2005 INPUT READ FROM UNIT   18
 # RIV package for MODFLOW-2005 generated by Flopy 3.9.5
 No named parameters
 MAXIMUM OF     49 ACTIVE RIVER REACHES AT ONE TIME
 CELL-BY-CELL FLOWS WILL BE SAVED ON UNIT   53


     0 River parameters

 EVT -- EVAPOTRANSPIRATION PACKAGE, VERSION 7, 5/2/2005
         INPUT READ FROM UNIT   22
 # EVT package for MODFLOW-2005 generated by Flopy 3.9.5
 No named parameters
 OPTION 3 -- EVAPOTRANSPIRATION FROM HIGHEST ACTIVE NODE IN EACH VERTICAL COLUMN
 CELL-BY-CELL FLOWS WILL BE SAVED ON UNIT   53


     0 Evapotranspiration parameters

 RCH -- RECHARGE PACKAGE, VERSION 7, 5/2/2005 INPUT READ FROM UNIT   19
 # RCH package for MODFLOW-2005 generated by Flopy 3.9.5
 No named parameters
 OPTION 3 -- RECHARGE TO HIGHEST ACTIVE NODE IN EACH VERTICAL COLUMN
 CELL-BY-CELL FLOWS WILL BE SAVED ON UNIT   53


     0 Recharge parameters

 PCG -- CONJUGATE-GRADIENT SOLUTION PACKAGE, VERSION 7, 5/2/2005
 # PCG package for MODFLOW-2005 generated by Flopy 3.9.5
 MAXIMUM OF   5000 CALLS OF SOLUTION ROUTINE
 MAXIMUM OF    500 INTERNAL ITERATIONS PER CALL TO SOLUTION ROUTINE
 MATRIX PRECONDITIONING TYPE :    1



                                    SOLUTION BY THE CONJUGATE-GRADIENT METHOD
                                   -------------------------------------------
                    MAXIMUM NUMBER OF CALLS TO PCG ROUTINE =     5000
                        MAXIMUM ITERATIONS PER CALL TO PCG =      500
                               MATRIX PRECONDITIONING TYPE =        1
        RELAXATION FACTOR (ONLY USED WITH PRECOND. TYPE 1) =    0.97000E+00
 PARAMETER OF POLYNOMIAL PRECOND. = 2 (2) OR IS CALCULATED :        0
                         HEAD CHANGE CRITERION FOR CLOSURE =    0.10000E-04
                     RESIDUAL CHANGE CRITERION FOR CLOSURE =    0.10000E-04
            PCG HEAD AND RESIDUAL CHANGE PRINTOUT INTERVAL =      999
     PRINTING FROM SOLVER IS LIMITED(1) OR SUPPRESSED (>1) =        3
                            STEADY-STATE DAMPING PARAMETER =    0.10000E-01
                               TRANSIENT DAMPING PARAMETER =    0.10000E-01
1
                            STRESS PERIOD NO.    1, LENGTH =   1.000000    
                            -----------------------------------------------

                              NUMBER OF TIME STEPS =     1

                               MULTIPLIER FOR DELT =     1.000

                            INITIAL TIME STEP SIZE =   1.000000    

 WELL NO.  LAYER   ROW   COL   STRESS RATE         
 --------------------------------------------------
      1      3     22     39      -1500.    
      2      1     13     15       0.000    
      3      1     25     26       375.0    

      3 WELLS

 REACH NO.  LAYER   ROW   COL     STAGE      CONDUCTANCE     BOTTOM EL.         
 -------------------------------------------------------------------------------
      1      1     25      2       100.5           1000.           98.00    
      2      1     25      3       99.50           1000.           97.00    
      3      1     25      4       98.50           1000.           96.00    
      4      1     25      5       97.50           1000.           95.00    
      5      1     25      6       96.50           1000.           94.00    
      6      1     25      7       95.50           1000.           93.00    
      7      1     25      8       94.50           1000.           92.00    
      8      1     25      9       93.50           1000.           91.00    
      9      1     25     10       92.50           1000.           90.00    
     10      1     25     11       91.50           1000.           89.00    
     11      1     25     12       90.50           1000.           88.00    
     12      1     25     13       89.50           1000.           87.00    
     13      1     25     14       88.50           1000.           86.00    
     14      1     25     15       87.50           1000.           85.00    
     15      1     25     16       86.50           1000.           84.00    
     16      1     25     17       85.50           1000.           83.00    
     17      1     25     18       84.50           1000.           82.00    
     18      1     25     19       83.50           1000.           81.00    
     19      1     25     20       82.50           1000.           80.00    
     20      1     25     21       81.50           1000.           79.00    
     21      1     25     22       80.50           1000.           78.00    
     22      1     25     23       79.50           1000.           77.00    
     23      1     25     24       78.50           1000.           76.00    
     24      1     25     25       77.50           1000.           75.00    
     25      1     25     26       77.40           1000.           74.90    
     26      1     25     27       77.30           1000.           74.80    
     27      1     25     28       77.20           1000.           74.70    
     28      1     25     29       77.10           1000.           74.60    
     29      1     25     30       77.00           1000.           74.50    
     30      1     25     31       76.90           1000.           74.40    
     31      1     25     32       76.80           1000.           74.30    
     32      1     25     33       76.70           1000.           74.20    
     33      1     25     34       76.60           1000.           74.10    
     34      1     25     35       76.50           1000.           74.00    
     35      1     25     36       76.40           1000.           73.90    
     36      1     25     37       76.30           1000.           73.80    
     37      1     25     38       76.20           1000.           73.70    
     38      1     25     39       76.10           1000.           73.60    
     39      1     25     40       76.00           1000.           73.50    
     40      1     25     41       75.90           1000.           73.40    
     41      1     25     42       75.80           1000.           73.30    
     42      1     25     43       75.70           1000.           73.20    
     43      1     25     44       75.60           1000.           73.10    
     44      1     25     45       75.50           1000.           73.00    
     45      1     25     46       75.40           1000.           72.90    
     46      1     25     47       75.30           1000.           72.80    
     47      1     25     48       75.20           1000.           72.70    
     48      1     25     49       75.10           1000.           72.60    
     49      1     25     50       75.00           1000.           72.50    

     49 RIVER REACHES



                         ET SURFACE
 READING ON UNIT   22 WITH FORMAT: (50E15.6)           



            EVAPOTRANSPIRATION RATE
 READING ON UNIT   22 WITH FORMAT: (50E15.6)           

         EXTINCTION DEPTH =   10.0000    



                           RECHARGE
 READING ON UNIT   19 WITH FORMAT: (50E15.6)           
 
 SOLVING FOR HEAD 

 OUTPUT CONTROL FOR STRESS PERIOD    1   TIME STEP    1
    SAVE HEAD FOR ALL LAYERS
    SAVE DRAWDOWN FOR ALL LAYERS
    SAVE BUDGET
    PRINT HEAD FOR ALL LAYERS
    PRINT BUDGET
 UBDSV2 SAVING "   CONSTANT HEAD" ON UNIT  53 AT TIME STEP  1, STRESS PERIOD   1
 UBDSV1 SAVING "FLOW RIGHT FACE " ON UNIT  53 AT TIME STEP  1, STRESS PERIOD   1
 UBDSV1 SAVING "FLOW FRONT FACE " ON UNIT  53 AT TIME STEP  1, STRESS PERIOD   1
 UBDSV1 SAVING "FLOW LOWER FACE " ON UNIT  53 AT TIME STEP  1, STRESS PERIOD   1
 UBDSV4 SAVING "   RIVER LEAKAGE" ON UNIT  53 AT TIME STEP  1, STRESS PERIOD   1
 UBDSV3 SAVING "              ET" ON UNIT  53 AT TIME STEP  1, STRESS PERIOD   1
 UBDSV3 SAVING "        RECHARGE" ON UNIT  53 AT TIME STEP  1, STRESS PERIOD   1
1
              HEAD IN LAYER   1 AT END OF TIME STEP   1 IN STRESS PERIOD    1
  ---------------------------------------------------------------------------

            1           2           3           4           5           6           7           8           9          10
           11          12          13          14          15          16          17          18          19          20
           21          22          23          24          25          26          27          28          29          30
           31          32          33          34          35          36          37          38          39          40
           41          42          43          44          45          46          47          48          49          50
 ........................................................................................................................
   1  -1000.0     -1000.0     -1000.0     -1000.0     -1000.0     -1000.0     -1000.0     -1000.0     -1000.0     -1000.0    
      -1000.0     -1000.0     -1000.0     -1000.0     -1000.0     -1000.0     -1000.0     -1000.0     -1000.0     -1000.0    
      -1000.0     -1000.0     -1000.0     -1000.0     -1000.0     -1000.0     -1000.0     -1000.0     -1000.0     -1000.0    
      -1000.0     -1000.0     -1000.0     -1000.0     -1000.0     -1000.0     -1000.0     -1000.0     -1000.0     -1000.0    
      -1000.0     -1000.0     -1000.0     -1000.0     -1000.0     -1000.0     -1000.0     -1000.0     -1000.0       70.00    
   2  -1000.0     -1000.0     -1000.0     -1000.0     -1000.0       79.28       79.23       79.16       79.06       78.96    
        78.87       78.77       78.65       78.51       78.36       78.20       78.03       77.85       77.67       77.48    
        77.30       77.12       76.93       76.73       76.53       76.32       76.11       75.89       75.67       75.45    
        75.21       74.98       74.74       74.50       74.25       73.99       73.74       73.48       73.21       72.94    
        72.66       72.38       72.10       71.81       71.52       71.22       70.92       70.62       70.31       70.00    
   3  -1000.0     -1000.0     -1000.0     -1000.0       79.37       79.31       79.25       79.17       79.07       78.98    
        78.89       78.78       78.65       78.52       78.37       78.20       78.03       77.86       77.68       77.49    
        77.31       77.12       76.93       76.73       76.53       76.33       76.11       75.90       75.68       75.45    
        75.22       74.98       74.74       74.50       74.25       74.00       73.74       73.48       73.21       72.94    
        72.67       72.39       72.10       71.82       71.52       71.23       70.93       70.62       70.31       70.00    
   4  -1000.0     -1000.0     -1000.0       79.46       79.41       79.35       79.27       79.18       79.10       79.01    
        78.91       78.80       78.67       78.53       78.38       78.21       78.04       77.87       77.69       77.50    
        77.32       77.13       76.94       76.74       76.54       76.33       76.12       75.91       75.68       75.46    
        75.23       74.99       74.75       74.51       74.26       74.01       73.75       73.49       73.22       72.95    
        72.67       72.39       72.11       71.82       71.53       71.23       70.93       70.62       70.31       70.00    
   5  -1000.0     -1000.0       79.55       79.50       79.45       79.38       79.30       79.22       79.13       79.04    
        78.94       78.82       78.69       78.55       78.40       78.23       78.06       77.88       77.70       77.51    
        77.33       77.15       76.95       76.76       76.55       76.35       76.13       75.92       75.70       75.47    
        75.24       75.00       74.76       74.52       74.27       74.02       73.76       73.50       73.23       72.96    
        72.68       72.40       72.12       71.83       71.53       71.23       70.93       70.63       70.31       70.00    
   6  -1000.0       79.62       79.59       79.54       79.48       79.41       79.34       79.26       79.17       79.08    
        78.97       78.85       78.72       78.58       78.42       78.26       78.08       77.90       77.72       77.53    
        77.35       77.16       76.97       76.77       76.57       76.36       76.15       75.93       75.71       75.49    
        75.25       75.02       74.78       74.53       74.29       74.03       73.77       73.51       73.24       72.97    
        72.69       72.41       72.13       71.84       71.54       71.24       70.94       70.63       70.32       70.00    
   7  -1000.0       79.64       79.62       79.57       79.52       79.45       79.38       79.30       79.21       79.11    
        79.01       78.88       78.75       78.61       78.45       78.28       78.11       77.93       77.75       77.56    
        77.37       77.19       76.99       76.80       76.59       76.39       76.17       75.96       75.73       75.51    
        75.28       75.04       74.80       74.55       74.31       74.05       73.79       73.53       73.26       72.99    
        72.71       72.43       72.14       71.85       71.55       71.25       70.94       70.63       70.32       70.00    
   8  -1000.0       79.68       79.65       79.61       79.56       79.50       79.43       79.35       79.26       79.16    
        79.05       78.92       78.79       78.65       78.49       78.32       78.14       77.96       77.78       77.58    
        77.40       77.21       77.02       76.82       76.62       76.41       76.20       75.98       75.76       75.53    
        75.30       75.06       74.82       74.58       74.33       74.07       73.82       73.55       73.28       73.01    
        72.73       72.45       72.16       71.86       71.57       71.26       70.95       70.64       70.32       70.00    
   9  -1000.0       79.72       79.70       79.66       79.61       79.55       79.48       79.40       79.31       79.21    
        79.09       78.97       78.83       78.69       78.53       78.36       78.18       78.00       77.81       77.62    
        77.44       77.25       77.05       76.85       76.65       76.44       76.23       76.01       75.79       75.56    
        75.33       75.09       74.85       74.61       74.36       74.10       73.84       73.58       73.31       73.04    
        72.76       72.47       72.18       71.88       71.58       71.28       70.96       70.65       70.33       70.00    
  10  -1000.0       79.76       79.74       79.70       79.66       79.60       79.53       79.45       79.36       79.26    
        79.14       79.02       78.88       78.73       78.57       78.40       78.22       78.04       77.85       77.66    
        77.47       77.28       77.09       76.89       76.69       76.48       76.26       76.04       75.82       75.59    
        75.36       75.12       74.88       74.64       74.39       74.13       73.87       73.61       73.34       73.07    
        72.78       72.50       72.20       71.91       71.60       71.29       70.98       70.66       70.33       70.00    
  11  -1000.0       79.81       79.79       79.76       79.71       79.66       79.59       79.51       79.42       79.32    
        79.20       79.08       78.94       78.79       78.63       78.45       78.27       78.09       77.90       77.70    
        77.51       77.32       77.13       76.93       76.72       76.51       76.30       76.08       75.86       75.63    
        75.40       75.16       74.92       74.68       74.43       74.17       73.91       73.65       73.38       73.10    
        72.82       72.53       72.23       71.93       71.63       71.31       70.99       70.67       70.34       70.00    
  12  -1000.0       79.86       79.85       79.82       79.77       79.72       79.65       79.57       79.48       79.38    
        79.26       79.14       79.00       78.85       78.68       78.51       78.32       78.14       77.94       77.75    
        77.56       77.37       77.17       76.97       76.77       76.56       76.34       76.12       75.90       75.67    
        75.44       75.20       74.96       74.72       74.47       74.21       73.95       73.69       73.42       73.14    
        72.86       72.57       72.27       71.97       71.65       71.34       71.01       70.68       70.34       70.00    
  13  -1000.0       79.92       79.91       79.88       79.84       79.79       79.72       79.64       79.55       79.45    
        79.33       79.20       79.06       78.91       78.74       78.57       78.38       78.19       78.00       77.80    
        77.61       77.42       77.22       77.02       76.82       76.60       76.39       76.17       75.94       75.72    
        75.48       75.25       75.01       74.76       74.51       74.26       74.00       73.74       73.46       73.19    
        72.90       72.61       72.31       72.00       71.69       71.36       71.03       70.69       70.35       70.00    
  14  -1000.0       80.00       79.98       79.95       79.91       79.86       79.79       79.71       79.62       79.52    
        79.40       79.27       79.13       78.98       78.81       78.63       78.45       78.26       78.06       77.86    
        77.67       77.48       77.28       77.08       76.87       76.65       76.44       76.22       75.99       75.77    
        75.53       75.30       75.06       74.82       74.57       74.31       74.05       73.79       73.52       73.24    
        72.95       72.66       72.36       72.05       71.73       71.40       71.06       70.71       70.36       70.00    
  15  -1000.0       80.07       80.06       80.03       79.99       79.94       79.87       79.79       79.70       79.60    
        79.48       79.35       79.21       79.05       78.88       78.70       78.52       78.32       78.12       77.92    
        77.73       77.54       77.34       77.13       76.92       76.71       76.49       76.27       76.05       75.82    
        75.59       75.35       75.12       74.87       74.63       74.37       74.12       73.85       73.58       73.30    
        73.01       72.72       72.41       72.10       71.77       71.44       71.09       70.74       70.37       70.00    
  16  -1000.0       80.16       80.15       80.12       80.08       80.03       79.96       79.88       79.79       79.68    
        79.57       79.44       79.29       79.13       78.96       78.78       78.59       78.39       78.19       77.98    
        77.79       77.60       77.40       77.19       76.98       76.77       76.55       76.33       76.10       75.88    
        75.65       75.41       75.18       74.94       74.69       74.44       74.18       73.92       73.65       73.37    
        73.08       72.79       72.48       72.16       71.83       71.49       71.13       70.76       70.39       70.00    
  17  -1000.0       80.25       80.24       80.21       80.17       80.12       80.05       79.97       79.88       79.78    
        79.66       79.53       79.38       79.22       79.05       78.86       78.67       78.47       78.27       78.05    
        77.86       77.67       77.47       77.26       77.05       76.83       76.61       76.39       76.17       75.94    
        75.71       75.48       75.24       75.00       74.76       74.51       74.26       74.00       73.73       73.45    
        73.17       72.87       72.56       72.23       71.90       71.54       71.18       70.80       70.40       70.00    
  18  -1000.0       80.35       80.34       80.31       80.27       80.22       80.15       80.07       79.98       79.87    
        79.76       79.62       79.48       79.32       79.14       78.95       78.76       78.56       78.35       78.13    
        77.94       77.74       77.54       77.33       77.12       76.90       76.68       76.45       76.23       76.00    
        75.78       75.55       75.31       75.08       74.84       74.59       74.34       74.08       73.82       73.54    
        73.26       72.96       72.65       72.32       71.98       71.61       71.23       70.84       70.42       70.00    
  19  -1000.0       80.46       80.45       80.42       80.38       80.33       80.26       80.18       80.09       79.98    
        79.86       79.73       79.58       79.42       79.24       79.05       78.85       78.65       78.43       78.21    
        78.02       77.82       77.62       77.41       77.19       76.97       76.74       76.52       76.30       76.07    
        75.85       75.62       75.39       75.16       74.92       74.68       74.44       74.18       73.92       73.65    
        73.37       73.07       72.76       72.43       72.07       71.70       71.31       70.89       70.45       70.00    
  20  -1000.0       80.57       80.56       80.53       80.49       80.44       80.37       80.29       80.20       80.09    
        79.97       79.84       79.69       79.53       79.35       79.16       78.96       78.75       78.53       78.30    
        78.11       77.91       77.70       77.49       77.26       77.04       76.81       76.59       76.37       76.14    
        75.92       75.70       75.47       75.25       75.01       74.78       74.54       74.29       74.03       73.77    
        73.49       73.19       72.88       72.55       72.19       71.81       71.40       70.96       70.49       70.00    
  21  -1000.0       80.69       80.68       80.65       80.61       80.56       80.49       80.41       80.32       80.21    
        80.09       79.96       79.81       79.64       79.46       79.27       79.06       78.85       78.63       78.40    
        78.21       78.01       77.79       77.57       77.34       77.11       76.88       76.66       76.44       76.22    
        76.00       75.78       75.56       75.34       75.12       74.89       74.65       74.41       74.16       73.90    
        73.63       73.34       73.03       72.70       72.34       71.95       71.52       71.04       70.54       70.00    
  22  -1000.0       80.82       80.81       80.78       80.74       80.69       80.62       80.54       80.45       80.34    
        80.22       80.08       79.93       79.77       79.59       79.39       79.18       78.97       78.74       78.50    
        78.32       78.12       77.90       77.66       77.42       77.19       76.95       76.73       76.51       76.29    
        76.08       75.87       75.65       75.44       75.22       75.00       74.78       74.55       74.31       74.06    
        73.79       73.51       73.21       72.88       72.52       72.12       71.67       71.16       70.60       70.00    
  23  -1000.0       80.96       80.94       80.92       80.88       80.82       80.76       80.68       80.58       80.47    
        80.35       80.22       80.06       79.90       79.72       79.52       79.31       79.09       78.86       78.62    
        78.45       78.25       78.01       77.76       77.50       77.25       77.02       76.79       76.58       76.37    
        76.16       75.96       75.75       75.55       75.34       75.13       74.92       74.70       74.47       74.23    
        73.98       73.71       73.42       73.10       72.75       72.35       71.88       71.33       70.71       70.00    
  24  -1000.0       81.10       81.08       81.06       81.02       80.96       80.90       80.82       80.72       80.62    
        80.49       80.36       80.21       80.04       79.86       79.66       79.45       79.23       78.99       78.74    
        78.62       78.41       78.15       77.86       77.57       77.32       77.08       76.85       76.64       76.44    
        76.24       76.05       75.86       75.66       75.47       75.27       75.07       74.86       74.65       74.43    
        74.19       73.94       73.67       73.37       73.03       72.63       72.16       71.58       70.87       70.00    
  25  -1000.0       81.25       81.23       81.21       81.17       81.11       81.05       80.97       80.87       80.76    
        80.64       80.51       80.36       80.19       80.01       79.81       79.60       79.38       79.14       78.89    
        78.88       78.64       78.31       77.95       77.61       77.37       77.12       76.90       76.71       76.52    
        76.33       76.15       75.97       75.79       75.61       75.43       75.24       75.05       74.85       74.64    
        74.43       74.20       73.95       73.68       73.37       73.01       72.55       71.95       71.17       70.00    
  26  -1000.0       81.09       81.08       81.05       81.01       80.96       80.89       80.81       80.72       80.61    
        80.49       80.35       80.20       80.04       79.85       79.66       79.45       79.23       78.99       78.74    
        78.62       78.41       78.15       77.86       77.57       77.31       77.07       76.85       76.64       76.44    
        76.24       76.05       75.85       75.66       75.47       75.27       75.07       74.86       74.65       74.42    
        74.19       73.94       73.67       73.37       73.03       72.63       72.16       71.58       70.87       70.00    
  27  -1000.0       80.95       80.94       80.91       80.87       80.82       80.75       80.67       80.57       80.47    
        80.34       80.21       80.06       79.89       79.71       79.51       79.30       79.09       78.85       78.61    
        78.45       78.24       78.01       77.75       77.49       77.25       77.01       76.79       76.57       76.36    
        76.15       75.95       75.75       75.54       75.34       75.13       74.91       74.69       74.47       74.23    
        73.98       73.71       73.42       73.10       72.75       72.34       71.88       71.33       70.70       70.00    
  28  -1000.0       80.81       80.80       80.77       80.73       80.68       80.61       80.53       80.44       80.33    
        80.21       80.07       79.92       79.76       79.57       79.38       79.17       78.96       78.73       78.49    
        78.31       78.11       77.89       77.65       77.41       77.18       76.94       76.72       76.50       76.28    
        76.07       75.86       75.65       75.43       75.22       75.00       74.77       74.54       74.30       74.05    
        73.79       73.51       73.21       72.88       72.52       72.12       71.67       71.16       70.60       70.00    
  29  -1000.0       80.68       80.66       80.64       80.60       80.55       80.48       80.40       80.30       80.20    
        80.08       79.94       79.79       79.63       79.45       79.25       79.05       78.84       78.62       78.39    
        78.20       78.00       77.78       77.56       77.33       77.10       76.87       76.65       76.43       76.21    
        75.99       75.77       75.55       75.33       75.11       74.88       74.65       74.41       74.16       73.90    
        73.63       73.34       73.03       72.70       72.34       71.95       71.51       71.04       70.54       70.00    
  30  -1000.0       80.55       80.54       80.51       80.47       80.42       80.35       80.27       80.18       80.07    
        79.95       79.82       79.67       79.51       79.33       79.14       78.94       78.73       78.51       78.29    
        78.10       77.90       77.69       77.47       77.25       77.02       76.80       76.58       76.35       76.13    
        75.91       75.69       75.46       75.24       75.01       74.77       74.53       74.28       74.03       73.76    
        73.48       73.19       72.88       72.55       72.19       71.81       71.40       70.95       70.49       70.00    
  31  -1000.0       80.43       80.42       80.40       80.36       80.30       80.24       80.16       80.06       79.96    
        79.84       79.70       79.56       79.40       79.22       79.03       78.83       78.63       78.42       78.20    
        78.00       77.81       77.60       77.39       77.17       76.95       76.73       76.51       76.28       76.06    
        75.83       75.61       75.38       75.15       74.91       74.67       74.43       74.17       73.91       73.64    
        73.36       73.06       72.75       72.42       72.07       71.70       71.30       70.89       70.45       70.00    
  32  -1000.0       80.32       80.31       80.28       80.24       80.19       80.13       80.05       79.95       79.85    
        79.73       79.60       79.45       79.29       79.12       78.93       78.74       78.53       78.33       78.11    
        77.92       77.72       77.52       77.31       77.10       76.88       76.66       76.44       76.21       75.99    
        75.76       75.53       75.30       75.06       74.83       74.58       74.33       74.08       73.81       73.54    
        73.25       72.95       72.64       72.32       71.97       71.61       71.23       70.84       70.42       70.00    
  33  -1000.0       80.22       80.21       80.18       80.14       80.09       80.02       79.94       79.85       79.75    
        79.63       79.50       79.35       79.19       79.02       78.84       78.65       78.45       78.24       78.03    
        77.84       77.65       77.44       77.24       77.03       76.81       76.59       76.37       76.15       75.92    
        75.69       75.46       75.23       74.99       74.75       74.50       74.25       73.99       73.72       73.44    
        73.16       72.86       72.55       72.23       71.89       71.54       71.17       70.79       70.40       70.00    
  34  -1000.0       80.12       80.11       80.08       80.04       79.99       79.92       79.85       79.75       79.65    
        79.53       79.40       79.26       79.10       78.93       78.75       78.56       78.37       78.16       77.96    
        77.77       77.57       77.37       77.17       76.96       76.74       76.53       76.31       76.08       75.86    
        75.63       75.39       75.16       74.92       74.67       74.42       74.17       73.91       73.64       73.36    
        73.08       72.78       72.47       72.15       71.82       71.48       71.13       70.76       70.38       70.00    
  35  -1000.0       80.03       80.02       79.99       79.95       79.90       79.83       79.76       79.66       79.56    
        79.44       79.31       79.17       79.02       78.85       78.67       78.48       78.29       78.09       77.89    
        77.70       77.51       77.31       77.10       76.90       76.68       76.47       76.25       76.02       75.80    
        75.57       75.33       75.10       74.85       74.61       74.36       74.10       73.84       73.57       73.29    
        73.00       72.71       72.41       72.09       71.77       71.43       71.09       70.73       70.37       70.00    
  36  -1000.0       79.95       79.93       79.91       79.87       79.81       79.75       79.67       79.58       79.48    
        79.36       79.23       79.09       78.94       78.77       78.59       78.41       78.22       78.02       77.82    
        77.63       77.44       77.25       77.04       76.84       76.62       76.41       76.19       75.97       75.74    
        75.51       75.28       75.04       74.79       74.55       74.30       74.04       73.77       73.50       73.23    
        72.94       72.65       72.35       72.04       71.72       71.39       71.06       70.71       70.36       70.00    
  37  -1000.0       79.87       79.86       79.83       79.79       79.74       79.67       79.59       79.50       79.40    
        79.28       79.16       79.02       78.87       78.70       78.52       78.34       78.15       77.96       77.76    
        77.58       77.38       77.19       76.99       76.78       76.57       76.36       76.14       75.91       75.69    
        75.46       75.22       74.98       74.74       74.49       74.24       73.98       73.72       73.45       73.17    
        72.89       72.60       72.30       71.99       71.68       71.36       71.03       70.69       70.35       70.00    
  38  -1000.0       79.80       79.79       79.76       79.72       79.66       79.60       79.52       79.43       79.33    
        79.21       79.09       78.95       78.80       78.64       78.46       78.28       78.09       77.90       77.70    
        77.52       77.33       77.14       76.94       76.73       76.52       76.31       76.09       75.87       75.64    
        75.41       75.17       74.94       74.69       74.44       74.19       73.93       73.67       73.40       73.12    
        72.84       72.55       72.26       71.96       71.65       71.33       71.01       70.68       70.34       70.00    
  39  -1000.0       79.74       79.72       79.69       79.65       79.60       79.53       79.45       79.36       79.26    
        79.15       79.02       78.89       78.74       78.58       78.40       78.22       78.04       77.85       77.65    
        77.47       77.28       77.09       76.89       76.68       76.47       76.26       76.04       75.82       75.60    
        75.36       75.13       74.89       74.65       74.40       74.15       73.89       73.63       73.36       73.08    
        72.80       72.51       72.22       71.92       71.62       71.30       70.99       70.66       70.33       70.00    
  40  -1000.0       79.69       79.67       79.64       79.59       79.54       79.47       79.39       79.30       79.20    
        79.09       78.96       78.83       78.68       78.52       78.35       78.17       77.99       77.80       77.61    
        77.42       77.24       77.04       76.84       76.64       76.43       76.22       76.00       75.78       75.56    
        75.32       75.09       74.85       74.61       74.36       74.11       73.85       73.59       73.32       73.04    
        72.77       72.48       72.19       71.89       71.59       71.28       70.97       70.65       70.33       70.00    
  41  -1000.0       79.65       79.62       79.59       79.54       79.48       79.41       79.34       79.25       79.15    
        79.03       78.91       78.78       78.63       78.47       78.30       78.12       77.94       77.76       77.57    
        77.38       77.20       77.00       76.81       76.60       76.40       76.18       75.97       75.74       75.52    
        75.29       75.05       74.82       74.57       74.32       74.07       73.82       73.55       73.29       73.01    
        72.74       72.45       72.16       71.87       71.57       71.27       70.96       70.64       70.32       70.00    
  42  -1000.0       79.60       79.58       79.54       79.49       79.43       79.36       79.28       79.19       79.09    
        78.98       78.86       78.73       78.58       78.43       78.26       78.08       77.90       77.72       77.53    
        77.35       77.16       76.97       76.77       76.57       76.36       76.15       75.93       75.71       75.49    
        75.26       75.02       74.78       74.54       74.29       74.04       73.79       73.52       73.26       72.99    
        72.71       72.43       72.14       71.85       71.55       71.25       70.95       70.63       70.32       70.00    
  43  -1000.0       79.56       79.54       79.50       79.44       79.38       79.31       79.24       79.15       79.05    
        78.94       78.82       78.69       78.54       78.39       78.22       78.05       77.87       77.68       77.50    
        77.31       77.13       76.94       76.74       76.54       76.33       76.12       75.90       75.68       75.46    
        75.23       75.00       74.76       74.52       74.27       74.02       73.76       73.50       73.23       72.96    
        72.69       72.41       72.12       71.83       71.54       71.24       70.94       70.63       70.32       70.00    
  44  -1000.0       79.53       79.50       79.46       79.40       79.34       79.27       79.19       79.10       79.01    
        78.90       78.78       78.65       78.51       78.35       78.19       78.01       77.84       77.65       77.47    
        77.29       77.10       76.91       76.71       76.51       76.31       76.10       75.88       75.66       75.44    
        75.21       74.97       74.74       74.49       74.25       73.99       73.74       73.48       73.21       72.94    
        72.67       72.39       72.11       71.82       71.53       71.23       70.93       70.62       70.31       70.00    
  45  -1000.0       79.51       79.47       79.43       79.37       79.30       79.23       79.15       79.06       78.97    
        78.86       78.74       78.62       78.48       78.32       78.16       77.99       77.81       77.63       77.44    
        77.26       77.08       76.89       76.69       76.49       76.29       76.08       75.86       75.64       75.42    
        75.19       74.95       74.72       74.47       74.23       73.98       73.72       73.46       73.20       72.93    
        72.65       72.38       72.09       71.81       71.52       71.22       70.92       70.62       70.31       70.00    
  46  -1000.0     -1000.0       79.44       79.39       79.33       79.27       79.19       79.11       79.03       78.93    
        78.83       78.72       78.59       78.45       78.30       78.13       77.97       77.79       77.61       77.42    
        77.25       77.06       76.87       76.67       76.47       76.27       76.06       75.84       75.62       75.40    
        75.17       74.94       74.70       74.46       74.21       73.96       73.71       73.45       73.18       72.91    
        72.64       72.37       72.08       71.80       71.51       71.22       70.92       70.62       70.31       70.00    
  47  -1000.0     -1000.0     -1000.0       79.35       79.30       79.23       79.16       79.07       78.99       78.90    
        78.80       78.69       78.57       78.43       78.28       78.12       77.95       77.77       77.60       77.41    
        77.23       77.05       76.86       76.66       76.46       76.26       76.05       75.83       75.61       75.39    
        75.16       74.93       74.69       74.45       74.20       73.95       73.70       73.44       73.17       72.91    
        72.63       72.36       72.08       71.79       71.50       71.21       70.91       70.61       70.31       70.00    
  48  -1000.0     -1000.0     -1000.0     -1000.0       79.26       79.20       79.14       79.06       78.96       78.88    
        78.78       78.67       78.55       78.42       78.27       78.11       77.94       77.76       77.59       77.40    
        77.22       77.04       76.85       76.65       76.45       76.25       76.04       75.82       75.60       75.38    
        75.15       74.92       74.68       74.44       74.19       73.94       73.69       73.43       73.17       72.90    
        72.63       72.35       72.07       71.79       71.50       71.21       70.91       70.61       70.31       70.00    
  49  -1000.0     -1000.0     -1000.0     -1000.0     -1000.0       79.17       79.12       79.05       78.96       78.85    
        78.77       78.66       78.54       78.41       78.26       78.10       77.93       77.76       77.58       77.40    
        77.22       77.03       76.84       76.65       76.45       76.24       76.03       75.82       75.60       75.38    
        75.15       74.92       74.68       74.44       74.19       73.94       73.69       73.43       73.16       72.90    
        72.63       72.35       72.07       71.79       71.50       71.21       70.91       70.61       70.31       70.00    
  50  -1000.0     -1000.0     -1000.0     -1000.0     -1000.0     -1000.0     -1000.0     -1000.0     -1000.0     -1000.0    
      -1000.0     -1000.0     -1000.0     -1000.0     -1000.0     -1000.0     -1000.0     -1000.0     -1000.0     -1000.0    
      -1000.0     -1000.0     -1000.0     -1000.0     -1000.0     -1000.0     -1000.0     -1000.0     -1000.0     -1000.0    
      -1000.0     -1000.0     -1000.0     -1000.0     -1000.0     -1000.0     -1000.0     -1000.0     -1000.0     -1000.0    
      -1000.0     -1000.0     -1000.0     -1000.0     -1000.0     -1000.0     -1000.0     -1000.0     -1000.0       70.00    
1
              HEAD IN LAYER   2 AT END OF TIME STEP   1 IN STRESS PERIOD    1
  ---------------------------------------------------------------------------

            1           2           3           4           5           6           7           8           9          10
           11          12          13          14          15          16          17          18          19          20
           21          22          23          24          25          26          27          28          29          30
           31          32          33          34          35          36          37          38          39          40
           41          42          43          44          45          46          47          48          49          50
 ........................................................................................................................
   1  -1000.0     -1000.0     -1000.0     -1000.0     -1000.0     -1000.0     -1000.0     -1000.0     -1000.0     -1000.0    
      -1000.0     -1000.0     -1000.0     -1000.0     -1000.0     -1000.0     -1000.0     -1000.0     -1000.0     -1000.0    
      -1000.0     -1000.0     -1000.0     -1000.0     -1000.0     -1000.0     -1000.0     -1000.0     -1000.0     -1000.0    
      -1000.0     -1000.0     -1000.0     -1000.0     -1000.0     -1000.0     -1000.0     -1000.0     -1000.0     -1000.0    
      -1000.0     -1000.0     -1000.0     -1000.0     -1000.0     -1000.0     -1000.0     -1000.0     -1000.0       70.00    
   2  -1000.0     -1000.0     -1000.0     -1000.0     -1000.0     -1000.0     -1000.0       79.16       79.06       78.96    
        78.87       78.77       78.65       78.51       78.36       78.20       78.03       77.85       77.67       77.48    
        77.29       77.09       76.89       76.69       76.47       76.26       76.04       75.82       75.59       75.36    
        75.12       74.88       74.64       74.39       74.14       73.88       73.62       73.36       73.10       72.83    
        72.56       72.28       72.01       71.73       71.44       71.16       70.87       70.58       70.29       70.00    
   3  -1000.0     -1000.0     -1000.0     -1000.0     -1000.0     -1000.0       79.25       79.17       79.07       78.98    
        78.89       78.78       78.65       78.52       78.37       78.20       78.03       77.86       77.68       77.49    
        77.30       77.10       76.90       76.69       76.48       76.26       76.04       75.82       75.59       75.36    
        75.12       74.88       74.64       74.39       74.14       73.89       73.63       73.37       73.10       72.83    
        72.56       72.29       72.01       71.73       71.45       71.16       70.87       70.58       70.29       70.00    
   4  -1000.0     -1000.0     -1000.0     -1000.0     -1000.0       79.35       79.27       79.18       79.10       79.01    
        78.91       78.80       78.67       78.53       78.38       78.21       78.04       77.87       77.69       77.50    
        77.31       77.11       76.91       76.70       76.49       76.27       76.05       75.83       75.60       75.37    
        75.13       74.89       74.64       74.40       74.15       73.89       73.63       73.37       73.10       72.84    
        72.56       72.29       72.01       71.73       71.45       71.16       70.87       70.58       70.29       70.00    
   5  -1000.0     -1000.0     -1000.0     -1000.0       79.45       79.38       79.30       79.22       79.13       79.04    
        78.94       78.82       78.69       78.55       78.40       78.23       78.06       77.88       77.70       77.51    
        77.32       77.12       76.92       76.71       76.50       76.28       76.06       75.84       75.61       75.37    
        75.14       74.90       74.65       74.41       74.15       73.90       73.64       73.38       73.11       72.84    
        72.57       72.30       72.02       71.74       71.45       71.16       70.88       70.59       70.29       70.00    
   6  -1000.0     -1000.0     -1000.0       79.54       79.48       79.41       79.34       79.26       79.17       79.08    
        78.97       78.85       78.72       78.58       78.42       78.26       78.08       77.90       77.72       77.53    
        77.34       77.14       76.94       76.73       76.51       76.30       76.08       75.85       75.62       75.39    
        75.15       74.91       74.66       74.42       74.16       73.91       73.65       73.39       73.12       72.85    
        72.58       72.30       72.02       71.74       71.46       71.17       70.88       70.59       70.29       70.00    
   7  -1000.0     -1000.0       79.62       79.57       79.52       79.45       79.38       79.30       79.21       79.11    
        79.01       78.88       78.75       78.61       78.45       78.28       78.11       77.93       77.75       77.56    
        77.36       77.16       76.96       76.75       76.53       76.32       76.09       75.87       75.64       75.40    
        75.17       74.92       74.68       74.43       74.18       73.92       73.66       73.40       73.13       72.86    
        72.59       72.31       72.03       71.75       71.46       71.17       70.88       70.59       70.30       70.00    
   8  -1000.0       79.68       79.65       79.61       79.56       79.50       79.43       79.35       79.26       79.16    
        79.05       78.92       78.79       78.65       78.49       78.32       78.14       77.96       77.78       77.58    
        77.39       77.19       76.98       76.77       76.56       76.34       76.12       75.89       75.66       75.42    
        75.18       74.94       74.70       74.45       74.19       73.94       73.68       73.41       73.15       72.88    
        72.60       72.32       72.04       71.76       71.47       71.18       70.89       70.59       70.30       70.00    
   9  -1000.0       79.72       79.70       79.66       79.61       79.55       79.48       79.40       79.31       79.21    
        79.09       78.97       78.83       78.69       78.53       78.36       78.18       78.00       77.81       77.62    
        77.42       77.22       77.01       76.80       76.58       76.36       76.14       75.91       75.68       75.45    
        75.21       74.96       74.72       74.47       74.21       73.96       73.70       73.43       73.16       72.89    
        72.62       72.34       72.06       71.77       71.48       71.19       70.90       70.60       70.30       70.00    
  10  -1000.0       79.76       79.74       79.70       79.66       79.60       79.53       79.45       79.36       79.26    
        79.14       79.02       78.88       78.73       78.57       78.40       78.22       78.04       77.85       77.66    
        77.46       77.25       77.04       76.83       76.62       76.39       76.17       75.94       75.71       75.47    
        75.23       74.99       74.74       74.49       74.24       73.98       73.72       73.45       73.18       72.91    
        72.63       72.35       72.07       71.78       71.49       71.20       70.90       70.60       70.30       70.00    
  11  -1000.0       79.81       79.79       79.76       79.71       79.66       79.59       79.51       79.42       79.32    
        79.20       79.08       78.94       78.79       78.63       78.45       78.27       78.09       77.90       77.70    
        77.50       77.29       77.08       76.87       76.65       76.43       76.20       75.97       75.74       75.50    
        75.26       75.01       74.77       74.51       74.26       74.00       73.74       73.47       73.21       72.93    
        72.65       72.37       72.09       71.80       71.51       71.21       70.91       70.61       70.31       70.00    
  12  -1000.0       79.86       79.85       79.82       79.77       79.72       79.65       79.57       79.48       79.38    
        79.26       79.14       79.00       78.85       78.68       78.51       78.32       78.14       77.94       77.75    
        77.54       77.34       77.12       76.91       76.69       76.46       76.23       76.00       75.77       75.53    
        75.29       75.04       74.79       74.54       74.29       74.03       73.77       73.50       73.23       72.96    
        72.68       72.40       72.11       71.82       71.52       71.22       70.92       70.62       70.31       70.00    
  13  -1000.0       79.92       79.91       79.88       79.84       79.79       79.72       79.64       79.55       79.45    
        79.33       79.20       79.06       78.91       78.74       78.57       78.38       78.19       78.00       77.80    
        77.59       77.38       77.17       76.95       76.73       76.50       76.27       76.04       75.80       75.56    
        75.32       75.07       74.83       74.57       74.32       74.06       73.80       73.53       73.26       72.98    
        72.70       72.42       72.13       71.84       71.54       71.24       70.93       70.62       70.31       70.00    
  14  -1000.0       80.00       79.98       79.95       79.91       79.86       79.79       79.71       79.62       79.52    
        79.40       79.27       79.13       78.98       78.81       78.63       78.45       78.26       78.06       77.86    
        77.65       77.44       77.22       77.00       76.77       76.54       76.31       76.08       75.84       75.60    
        75.36       75.11       74.86       74.61       74.35       74.09       73.83       73.56       73.29       73.01    
        72.73       72.45       72.16       71.86       71.56       71.26       70.95       70.63       70.32       70.00    
  15  -1000.0       80.07       80.06       80.03       79.99       79.94       79.87       79.79       79.70       79.60    
        79.48       79.35       79.21       79.05       78.88       78.70       78.52       78.32       78.12       77.92    
        77.71       77.49       77.27       77.05       76.82       76.59       76.36       76.12       75.88       75.64    
        75.39       75.15       74.90       74.64       74.39       74.13       73.86       73.59       73.32       73.05    
        72.77       72.48       72.19       71.89       71.59       71.28       70.96       70.64       70.32       70.00    
  16  -1000.0       80.16       80.15       80.12       80.08       80.03       79.96       79.88       79.79       79.68    
        79.57       79.44       79.29       79.13       78.96       78.78       78.59       78.39       78.19       77.98    
        77.77       77.55       77.33       77.10       76.87       76.64       76.40       76.16       75.92       75.68    
        75.43       75.18       74.93       74.68       74.42       74.16       73.90       73.63       73.36       73.08    
        72.80       72.51       72.22       71.92       71.61       71.30       70.98       70.66       70.33       70.00    
  17  -1000.0       80.25       80.24       80.21       80.17       80.12       80.05       79.97       79.88       79.78    
        79.66       79.53       79.38       79.22       79.05       78.86       78.67       78.47       78.27       78.05    
        77.84       77.61       77.39       77.16       76.92       76.69       76.45       76.21       75.96       75.72    
        75.47       75.22       74.97       74.72       74.46       74.20       73.94       73.67       73.40       73.12    
        72.84       72.55       72.26       71.96       71.65       71.33       71.00       70.67       70.34       70.00    
  18  -1000.0       80.35       80.34       80.31       80.27       80.22       80.15       80.07       79.98       79.87    
        79.76       79.62       79.48       79.32       79.14       78.95       78.76       78.56       78.35       78.13    
        77.91       77.68       77.45       77.21       76.98       76.74       76.49       76.25       76.01       75.76    
        75.51       75.27       75.02       74.76       74.51       74.25       73.98       73.72       73.44       73.17    
        72.89       72.60       72.30       72.00       71.68       71.36       71.03       70.69       70.35       70.00    
  19  -1000.0       80.46       80.45       80.42       80.38       80.33       80.26       80.18       80.09       79.98    
        79.86       79.73       79.58       79.42       79.24       79.05       78.85       78.65       78.43       78.21    
        77.98       77.75       77.51       77.27       77.03       76.79       76.54       76.30       76.05       75.80    
        75.56       75.31       75.06       74.80       74.55       74.29       74.03       73.76       73.49       73.21    
        72.93       72.64       72.35       72.04       71.72       71.40       71.06       70.71       70.36       70.00    
  20  -1000.0       80.57       80.56       80.53       80.49       80.44       80.37       80.29       80.20       80.09    
        79.97       79.84       79.69       79.53       79.35       79.16       78.96       78.75       78.53       78.30    
        78.07       77.82       77.58       77.33       77.08       76.84       76.59       76.34       76.09       75.85    
        75.60       75.35       75.10       74.85       74.59       74.34       74.07       73.81       73.54       73.26    
        72.98       72.70       72.40       72.09       71.77       71.44       71.09       70.74       70.37       70.00    
  21  -1000.0       80.69       80.68       80.65       80.61       80.56       80.49       80.41       80.32       80.21    
        80.09       79.96       79.81       79.64       79.46       79.27       79.06       78.85       78.63       78.40    
        78.15       77.90       77.65       77.39       77.14       76.88       76.63       76.38       76.13       75.88    
        75.64       75.39       75.14       74.89       74.64       74.38       74.12       73.86       73.59       73.32    
        73.04       72.75       72.46       72.15       71.82       71.48       71.13       70.76       70.39       70.00    
  22  -1000.0       80.82       80.81       80.78       80.74       80.69       80.62       80.54       80.45       80.34    
        80.22       80.08       79.93       79.77       79.59       79.39       79.18       78.97       78.74       78.50    
        78.24       77.98       77.71       77.45       77.18       76.92       76.67       76.42       76.17       75.92    
        75.67       75.43       75.18       74.93       74.68       74.43       74.17       73.90       73.64       73.37    
        73.09       72.81       72.51       72.20       71.88       71.53       71.17       70.80       70.40       70.00    
  23  -1000.0       80.96       80.94       80.92       80.88       80.82       80.76       80.68       80.58       80.47    
        80.35       80.22       80.06       79.90       79.72       79.52       79.31       79.09       78.86       78.62    
        78.33       78.05       77.77       77.49       77.22       76.96       76.70       76.45       76.20       75.95    
        75.70       75.46       75.21       74.97       74.72       74.47       74.21       73.95       73.69       73.42    
        73.15       72.86       72.57       72.26       71.93       71.59       71.22       70.83       70.42       70.00    
  24  -1000.0       81.10       81.08       81.06       81.02       80.96       80.90       80.82       80.72       80.62    
        80.49       80.36       80.21       80.04       79.86       79.66       79.45       79.23       78.99       78.74    
        78.42       78.11       77.81       77.53       77.25       76.98       76.72       76.47       76.22       75.97    
        75.73       75.48       75.24       74.99       74.75       74.50       74.24       73.99       73.73       73.46    
        73.19       72.91       72.61       72.30       71.98       71.63       71.26       70.86       70.44       70.00    
  25  -1000.0       81.25       81.23       81.21       81.17       81.11       81.05       80.97       80.87       80.76    
        80.64       80.51       80.36       80.19       80.01       79.81       79.60       79.38       79.14       78.89    
        78.47       78.14       77.83       77.54       77.26       76.99       76.73       76.47       76.22       75.98    
        75.73       75.49       75.25       75.01       74.76       74.51       74.26       74.01       73.75       73.48    
        73.21       72.93       72.64       72.33       72.00       71.65       71.28       70.88       70.45       70.00    
  26  -1000.0       81.09       81.08       81.05       81.01       80.96       80.89       80.81       80.72       80.61    
        80.49       80.35       80.20       80.04       79.85       79.66       79.45       79.23       78.99       78.74    
        78.41       78.10       77.81       77.52       77.25       76.98       76.72       76.47       76.22       75.97    
        75.72       75.48       75.24       74.99       74.75       74.50       74.25       73.99       73.73       73.47    
        73.20       72.91       72.62       72.31       71.98       71.63       71.26       70.86       70.44       70.00    
  27  -1000.0       80.95       80.94       80.91       80.87       80.82       80.75       80.67       80.57       80.47    
        80.34       80.21       80.06       79.89       79.71       79.51       79.30       79.09       78.85       78.61    
        78.33       78.04       77.76       77.49       77.22       76.95       76.70       76.44       76.19       75.95    
        75.70       75.46       75.21       74.97       74.72       74.47       74.22       73.96       73.70       73.43    
        73.16       72.87       72.57       72.26       71.93       71.59       71.22       70.83       70.42       70.00    
  28  -1000.0       80.81       80.80       80.77       80.73       80.68       80.61       80.53       80.44       80.33    
        80.21       80.07       79.92       79.76       79.57       79.38       79.17       78.96       78.73       78.49    
        78.23       77.97       77.70       77.44       77.18       76.92       76.66       76.41       76.16       75.92    
        75.67       75.43       75.18       74.93       74.69       74.43       74.18       73.92       73.66       73.39    
        73.11       72.82       72.52       72.21       71.88       71.54       71.18       70.80       70.40       70.00    
  29  -1000.0       80.68       80.66       80.64       80.60       80.55       80.48       80.40       80.30       80.20    
        80.08       79.94       79.79       79.63       79.45       79.25       79.05       78.84       78.62       78.39    
        78.14       77.89       77.64       77.38       77.13       76.87       76.62       76.37       76.13       75.88    
        75.63       75.39       75.14       74.89       74.64       74.39       74.13       73.87       73.61       73.33    
        73.05       72.76       72.46       72.15       71.83       71.49       71.13       70.77       70.39       70.00    
  30  -1000.0       80.55       80.54       80.51       80.47       80.42       80.35       80.27       80.18       80.07    
        79.95       79.82       79.67       79.51       79.33       79.14       78.94       78.73       78.51       78.29    
        78.05       77.81       77.57       77.32       77.07       76.82       76.58       76.33       76.08       75.84    
        75.59       75.35       75.10       74.85       74.60       74.34       74.08       73.82       73.55       73.28    
        73.00       72.71       72.41       72.10       71.78       71.44       71.10       70.74       70.37       70.00    
  31  -1000.0       80.43       80.42       80.40       80.36       80.30       80.24       80.16       80.06       79.96    
        79.84       79.70       79.56       79.40       79.22       79.03       78.83       78.63       78.42       78.20    
        77.97       77.73       77.50       77.26       77.02       76.77       76.53       76.28       76.04       75.80    
        75.55       75.30       75.05       74.80       74.55       74.30       74.04       73.77       73.50       73.23    
        72.94       72.65       72.36       72.05       71.73       71.40       71.06       70.71       70.36       70.00    
  32  -1000.0       80.32       80.31       80.28       80.24       80.19       80.13       80.05       79.95       79.85    
        79.73       79.60       79.45       79.29       79.12       78.93       78.74       78.53       78.33       78.11    
        77.89       77.66       77.43       77.20       76.96       76.72       76.48       76.24       75.99       75.75    
        75.51       75.26       75.01       74.76       74.51       74.25       73.99       73.72       73.45       73.18    
        72.89       72.60       72.31       72.00       71.69       71.36       71.03       70.69       70.35       70.00    
  33  -1000.0       80.22       80.21       80.18       80.14       80.09       80.02       79.94       79.85       79.75    
        79.63       79.50       79.35       79.19       79.02       78.84       78.65       78.45       78.24       78.03    
        77.81       77.59       77.36       77.13       76.90       76.67       76.43       76.19       75.95       75.71    
        75.46       75.22       74.97       74.72       74.46       74.20       73.94       73.68       73.41       73.13    
        72.85       72.56       72.26       71.96       71.65       71.33       71.01       70.67       70.34       70.00    
  34  -1000.0       80.12       80.11       80.08       80.04       79.99       79.92       79.85       79.75       79.65    
        79.53       79.40       79.26       79.10       78.93       78.75       78.56       78.37       78.16       77.96    
        77.74       77.52       77.30       77.08       76.85       76.61       76.38       76.14       75.90       75.66    
        75.42       75.17       74.92       74.67       74.42       74.16       73.90       73.63       73.36       73.09    
        72.80       72.52       72.22       71.92       71.62       71.30       70.98       70.66       70.33       70.00    
  35  -1000.0       80.03       80.02       79.99       79.95       79.90       79.83       79.76       79.66       79.56    
        79.44       79.31       79.17       79.02       78.85       78.67       78.48       78.29       78.09       77.89    
        77.68       77.46       77.24       77.02       76.79       76.56       76.33       76.10       75.86       75.62    
        75.38       75.13       74.88       74.63       74.38       74.12       73.86       73.59       73.32       73.05    
        72.77       72.48       72.19       71.89       71.59       71.28       70.96       70.64       70.32       70.00    
  36  -1000.0       79.95       79.93       79.91       79.87       79.81       79.75       79.67       79.58       79.48    
        79.36       79.23       79.09       78.94       78.77       78.59       78.41       78.22       78.02       77.82    
        77.61       77.40       77.19       76.97       76.74       76.52       76.29       76.05       75.82       75.58    
        75.34       75.09       74.84       74.59       74.34       74.08       73.82       73.55       73.28       73.01    
        72.73       72.45       72.16       71.86       71.56       71.26       70.95       70.63       70.32       70.00    
  37  -1000.0       79.87       79.86       79.83       79.79       79.74       79.67       79.59       79.50       79.40    
        79.28       79.16       79.02       78.87       78.70       78.52       78.34       78.15       77.96       77.76    
        77.56       77.35       77.13       76.92       76.70       76.47       76.24       76.01       75.78       75.54    
        75.30       75.06       74.81       74.56       74.30       74.05       73.79       73.52       73.25       72.98    
        72.70       72.42       72.13       71.84       71.54       71.24       70.93       70.62       70.31       70.00    
  38  -1000.0       79.80       79.79       79.76       79.72       79.66       79.60       79.52       79.43       79.33    
        79.21       79.09       78.95       78.80       78.64       78.46       78.28       78.09       77.90       77.70    
        77.50       77.30       77.09       76.87       76.65       76.43       76.20       75.97       75.74       75.50    
        75.26       75.02       74.77       74.52       74.27       74.01       73.75       73.49       73.22       72.95    
        72.67       72.39       72.10       71.81       71.52       71.22       70.92       70.61       70.31       70.00    
  39  -1000.0       79.74       79.72       79.69       79.65       79.60       79.53       79.45       79.36       79.26    
        79.15       79.02       78.89       78.74       78.58       78.40       78.22       78.04       77.85       77.65    
        77.45       77.25       77.04       76.83       76.61       76.39       76.17       75.94       75.70       75.47    
        75.23       74.99       74.74       74.49       74.24       73.98       73.72       73.46       73.19       72.92    
        72.64       72.37       72.08       71.79       71.50       71.21       70.91       70.61       70.30       70.00    
  40  -1000.0       79.69       79.67       79.64       79.59       79.54       79.47       79.39       79.30       79.20    
        79.09       78.96       78.83       78.68       78.52       78.35       78.17       77.99       77.80       77.61    
        77.41       77.21       77.00       76.79       76.57       76.35       76.13       75.90       75.67       75.44    
        75.20       74.96       74.71       74.47       74.21       73.96       73.70       73.43       73.17       72.90    
        72.62       72.34       72.06       71.78       71.49       71.19       70.90       70.60       70.30       70.00    
  41  -1000.0       79.65       79.62       79.59       79.54       79.48       79.41       79.34       79.25       79.15    
        79.03       78.91       78.78       78.63       78.47       78.30       78.12       77.94       77.76       77.57    
        77.37       77.17       76.96       76.75       76.54       76.32       76.10       75.87       75.64       75.41    
        75.17       74.93       74.69       74.44       74.19       73.93       73.67       73.41       73.15       72.88    
        72.60       72.33       72.05       71.76       71.47       71.18       70.89       70.60       70.30       70.00    
  42  -1000.0       79.60       79.58       79.54       79.49       79.43       79.36       79.28       79.19       79.09    
        78.98       78.86       78.73       78.58       78.43       78.26       78.08       77.90       77.72       77.53    
        77.33       77.13       76.93       76.72       76.51       76.29       76.07       75.85       75.62       75.38    
        75.15       74.91       74.66       74.42       74.17       73.91       73.65       73.39       73.13       72.86    
        72.59       72.31       72.03       71.75       71.46       71.17       70.88       70.59       70.30       70.00    
  43  -1000.0       79.56       79.54       79.50       79.44       79.38       79.31       79.24       79.15       79.05    
        78.94       78.82       78.69       78.54       78.39       78.22       78.05       77.87       77.68       77.50    
        77.30       77.10       76.90       76.69       76.48       76.27       76.05       75.82       75.59       75.36    
        75.13       74.89       74.64       74.40       74.15       73.89       73.64       73.38       73.11       72.84    
        72.57       72.30       72.02       71.74       71.45       71.17       70.88       70.59       70.29       70.00    
  44  -1000.0     -1000.0       79.50       79.46       79.40       79.34       79.27       79.19       79.10       79.01    
        78.90       78.78       78.65       78.51       78.35       78.19       78.01       77.84       77.65       77.47    
        77.27       77.08       76.88       76.67       76.46       76.24       76.02       75.80       75.57       75.34    
        75.11       74.87       74.63       74.38       74.13       73.88       73.62       73.36       73.10       72.83    
        72.56       72.29       72.01       71.73       71.45       71.16       70.87       70.58       70.29       70.00    
  45  -1000.0     -1000.0     -1000.0       79.43       79.37       79.30       79.23       79.15       79.06       78.97    
        78.86       78.74       78.62       78.48       78.32       78.16       77.99       77.81       77.63       77.44    
        77.25       77.06       76.85       76.65       76.44       76.22       76.01       75.78       75.56       75.33    
        75.09       74.85       74.61       74.37       74.12       73.86       73.61       73.35       73.09       72.82    
        72.55       72.28       72.00       71.72       71.44       71.16       70.87       70.58       70.29       70.00    
  46  -1000.0     -1000.0     -1000.0     -1000.0       79.33       79.27       79.19       79.11       79.03       78.93    
        78.83       78.72       78.59       78.45       78.30       78.13       77.97       77.79       77.61       77.42    
        77.23       77.04       76.84       76.63       76.42       76.21       75.99       75.77       75.54       75.31    
        75.08       74.84       74.60       74.36       74.11       73.85       73.60       73.34       73.08       72.81    
        72.54       72.27       71.99       71.72       71.43       71.15       70.87       70.58       70.29       70.00    
  47  -1000.0     -1000.0     -1000.0     -1000.0     -1000.0       79.23       79.16       79.07       78.99       78.90    
        78.80       78.69       78.57       78.43       78.28       78.12       77.95       77.77       77.60       77.41    
        77.22       77.02       76.82       76.62       76.41       76.20       75.98       75.76       75.53       75.30    
        75.07       74.83       74.59       74.35       74.10       73.85       73.59       73.33       73.07       72.80    
        72.53       72.26       71.99       71.71       71.43       71.15       70.86       70.58       70.29       70.00    
  48  -1000.0     -1000.0     -1000.0     -1000.0     -1000.0     -1000.0       79.14       79.06       78.96       78.88    
        78.78       78.67       78.55       78.42       78.27       78.11       77.94       77.76       77.59       77.40    
        77.21       77.02       76.82       76.61       76.40       76.19       75.97       75.75       75.53       75.30    
        75.06       74.83       74.59       74.34       74.09       73.84       73.59       73.33       73.06       72.80    
        72.53       72.26       71.99       71.71       71.43       71.15       70.86       70.58       70.29       70.00    
  49  -1000.0     -1000.0     -1000.0     -1000.0     -1000.0     -1000.0     -1000.0       79.05       78.96       78.85    
        78.77       78.66       78.54       78.41       78.26       78.10       77.93       77.76       77.58       77.40    
        77.21       77.01       76.81       76.61       76.40       76.19       75.97       75.75       75.52       75.29    
        75.06       74.82       74.58       74.34       74.09       73.84       73.58       73.32       73.06       72.80    
        72.53       72.26       71.98       71.71       71.43       71.14       70.86       70.58       70.29       70.00    
  50  -1000.0     -1000.0     -1000.0     -1000.0     -1000.0     -1000.0     -1000.0     -1000.0     -1000.0     -1000.0    
      -1000.0     -1000.0     -1000.0     -1000.0     -1000.0     -1000.0     -1000.0     -1000.0     -1000.0     -1000.0    
      -1000.0     -1000.0     -1000.0     -1000.0     -1000.0     -1000.0     -1000.0     -1000.0     -1000.0     -1000.0    
      -1000.0     -1000.0     -1000.0     -1000.0     -1000.0     -1000.0     -1000.0     -1000.0     -1000.0     -1000.0    
      -1000.0     -1000.0     -1000.0     -1000.0     -1000.0     -1000.0     -1000.0     -1000.0     -1000.0       70.00    
1
              HEAD IN LAYER   3 AT END OF TIME STEP   1 IN STRESS PERIOD    1
  ---------------------------------------------------------------------------

            1           2           3           4           5           6           7           8           9          10
           11          12          13          14          15          16          17          18          19          20
           21          22          23          24          25          26          27          28          29          30
           31          32          33          34          35          36          37          38          39          40
[...]
        78.28       77.95       77.63       77.33       77.03       76.74       76.45       76.17       75.90       75.62    
        75.35       75.07       74.80       74.52       74.24       73.96       73.66       73.37       73.07       72.81    
        72.56       72.29       72.02       71.74       71.46       71.17       70.88       70.59       70.30       70.00    
  24  -1000.0       81.10       81.08       81.06       81.02       80.96       80.90       80.82       80.72       80.62    
        80.49       80.36       80.21       80.04       79.86       79.66       79.45       79.23       78.99       78.74    
        78.36       78.00       77.66       77.35       77.04       76.75       76.47       76.18       75.91       75.63    
        75.35       75.08       74.80       74.53       74.25       73.97       73.68       73.39       73.11       72.84    
        72.57       72.30       72.03       71.75       71.47       71.18       70.89       70.59       70.30       70.00    
  25  -1000.0       81.25       81.23       81.21       81.17       81.11       81.05       80.97       80.87       80.76    
        80.64       80.51       80.35       80.19       80.01       79.81       79.60       79.38       79.14       78.89    
        78.40       78.02       77.67       77.35       77.05       76.76       76.47       76.19       75.91       75.63    
        75.36       75.08       74.81       74.53       74.26       73.98       73.70       73.41       73.14       72.86    
        72.59       72.31       72.04       71.75       71.47       71.18       70.89       70.59       70.30       70.00    
  26  -1000.0       81.09       81.08       81.05       81.01       80.96       80.89       80.81       80.72       80.61    
        80.49       80.35       80.20       80.04       79.85       79.66       79.45       79.23       78.99       78.74    
        78.35       77.99       77.66       77.35       77.04       76.75       76.46       76.18       75.91       75.63    
        75.36       75.08       74.81       74.53       74.26       73.98       73.70       73.43       73.15       72.87    
        72.60       72.32       72.04       71.76       71.47       71.18       70.89       70.59       70.30       70.00    
  27  -1000.0       80.95       80.94       80.91       80.87       80.82       80.75       80.67       80.57       80.47    
        80.34       80.21       80.06       79.89       79.71       79.51       79.30       79.09       78.85       78.61    
        78.27       77.94       77.63       77.32       77.02       76.74       76.45       76.17       75.90       75.62    
        75.35       75.08       74.81       74.53       74.26       73.98       73.71       73.43       73.16       72.88    
        72.60       72.32       72.04       71.76       71.47       71.18       70.89       70.59       70.30       70.00    
  28  -1000.0       80.81       80.80       80.77       80.73       80.68       80.61       80.53       80.44       80.33    
        80.21       80.07       79.92       79.76       79.57       79.38       79.17       78.96       78.73       78.49    
        78.19       77.88       77.58       77.29       77.00       76.71       76.43       76.16       75.88       75.61    
        75.34       75.07       74.80       74.53       74.26       73.98       73.71       73.43       73.16       72.88    
        72.60       72.32       72.04       71.76       71.47       71.18       70.89       70.59       70.30       70.00    
  29  -1000.0       80.68       80.66       80.64       80.60       80.55       80.48       80.40       80.30       80.20    
        80.08       79.94       79.79       79.63       79.45       79.25       79.05       78.84       78.62       78.39    
        78.10       77.81       77.53       77.24       76.96       76.68       76.41       76.14       75.87       75.60    
        75.33       75.06       74.79       74.52       74.25       73.98       73.70       73.43       73.15       72.88    
        72.60       72.32       72.04       71.75       71.47       71.18       70.88       70.59       70.30       70.00    
  30  -1000.0       80.55       80.54       80.51       80.47       80.42       80.35       80.27       80.18       80.07    
        79.95       79.82       79.67       79.51       79.33       79.14       78.94       78.73       78.51       78.29    
        78.02       77.74       77.47       77.20       76.92       76.65       76.38       76.11       75.84       75.58    
        75.31       75.04       74.78       74.51       74.24       73.97       73.70       73.42       73.15       72.87    
        72.59       72.31       72.03       71.75       71.46       71.17       70.88       70.59       70.29       70.00    
  31  -1000.0       80.43       80.42       80.40       80.36       80.30       80.24       80.16       80.06       79.96    
        79.84       79.70       79.56       79.40       79.22       79.03       78.83       78.63       78.42       78.20    
        77.94       77.68       77.41       77.15       76.88       76.61       76.35       76.08       75.82       75.56    
        75.29       75.03       74.76       74.49       74.23       73.96       73.69       73.41       73.14       72.86    
        72.59       72.31       72.03       71.74       71.46       71.17       70.88       70.59       70.29       70.00    
  32  -1000.0       80.32       80.31       80.28       80.24       80.19       80.13       80.05       79.95       79.85    
        79.73       79.60       79.45       79.29       79.12       78.93       78.74       78.53       78.33       78.11    
        77.86       77.61       77.35       77.09       76.83       76.58       76.32       76.05       75.79       75.53    
        75.27       75.01       74.74       74.48       74.21       73.94       73.67       73.40       73.13       72.86    
        72.58       72.30       72.02       71.73       71.45       71.16       70.87       70.58       70.29       70.00    
  33  -1000.0       80.22       80.21       80.18       80.14       80.09       80.02       79.94       79.85       79.75    
        79.63       79.50       79.35       79.19       79.02       78.84       78.65       78.45       78.24       78.03    
        77.79       77.54       77.29       77.04       76.79       76.54       76.28       76.02       75.77       75.51    
        75.25       74.99       74.72       74.46       74.20       73.93       73.66       73.39       73.12       72.84    
        72.57       72.29       72.01       71.73       71.44       71.16       70.87       70.58       70.29       70.00    
  34  -1000.0       80.12       80.11       80.08       80.04       79.99       79.92       79.85       79.75       79.65    
        79.53       79.40       79.26       79.10       78.93       78.75       78.56       78.37       78.16       77.96    
        77.72       77.48       77.24       76.99       76.75       76.50       76.24       75.99       75.74       75.48    
        75.22       74.96       74.70       74.44       74.18       73.91       73.65       73.38       73.11       72.83    
        72.56       72.28       72.00       71.72       71.44       71.15       70.86       70.58       70.29       70.00    
  35  -1000.0       80.03       80.02       79.99       79.95       79.90       79.83       79.76       79.66       79.56    
        79.44       79.31       79.17       79.02       78.85       78.67       78.48       78.29       78.09       77.89    
        77.66       77.42       77.19       76.94       76.70       76.46       76.21       75.96       75.71       75.45    
        75.20       74.94       74.68       74.42       74.16       73.90       73.63       73.36       73.09       72.82    
        72.55       72.27       71.99       71.71       71.43       71.15       70.86       70.57       70.29       70.00    
  36  -1000.0       79.95       79.93       79.91       79.87       79.81       79.75       79.67       79.58       79.48    
        79.36       79.23       79.09       78.94       78.77       78.59       78.41       78.22       78.02       77.82    
        77.60       77.37       77.13       76.90       76.66       76.42       76.17       75.93       75.68       75.43    
        75.17       74.92       74.66       74.40       74.14       73.88       73.62       73.35       73.08       72.81    
        72.54       72.26       71.98       71.70       71.42       71.14       70.86       70.57       70.29       70.00    
  37  -1000.0       79.87       79.86       79.83       79.79       79.74       79.67       79.59       79.50       79.40    
        79.28       79.16       79.02       78.87       78.70       78.52       78.34       78.15       77.96       77.76    
        77.54       77.32       77.09       76.85       76.62       76.38       76.14       75.90       75.65       75.40    
        75.15       74.90       74.64       74.39       74.13       73.86       73.60       73.33       73.07       72.80    
        72.52       72.25       71.97       71.70       71.42       71.13       70.85       70.57       70.28       70.00    
  38  -1000.0       79.80       79.79       79.76       79.72       79.66       79.60       79.52       79.43       79.33    
        79.21       79.09       78.95       78.80       78.64       78.46       78.28       78.09       77.90       77.70    
        77.49       77.27       77.04       76.81       76.58       76.35       76.11       75.87       75.62       75.38    
        75.13       74.88       74.62       74.37       74.11       73.85       73.59       73.32       73.05       72.78    
        72.51       72.24       71.97       71.69       71.41       71.13       70.85       70.57       70.28       70.00    
  39  -1000.0       79.74       79.72       79.69       79.65       79.60       79.53       79.45       79.36       79.26    
        79.15       79.02       78.89       78.74       78.58       78.40       78.22       78.04       77.85       77.65    
        77.44       77.22       77.00       76.77       76.55       76.31       76.08       75.84       75.60       75.35    
        75.11       74.86       74.60       74.35       74.09       73.83       73.57       73.31       73.04       72.77    
        72.50       72.23       71.96       71.68       71.40       71.12       70.84       70.56       70.28       70.00    
  40  -1000.0       79.69       79.67       79.64       79.59       79.54       79.47       79.39       79.30       79.20    
        79.09       78.96       78.83       78.68       78.52       78.35       78.17       77.99       77.80       77.61    
        77.40       77.18       76.96       76.74       76.51       76.28       76.05       75.81       75.57       75.33    
        75.08       74.84       74.59       74.33       74.08       73.82       73.56       73.30       73.03       72.76    
        72.49       72.22       71.95       71.67       71.40       71.12       70.84       70.56       70.28       70.00    
  41  -1000.0       79.65       79.62       79.59       79.54       79.48       79.41       79.34       79.25       79.15    
        79.03       78.91       78.78       78.63       78.47       78.30       78.12       77.94       77.76       77.57    
        77.36       77.14       76.93       76.71       76.48       76.25       76.02       75.79       75.55       75.31    
        75.06       74.82       74.57       74.32       74.06       73.81       73.55       73.28       73.02       72.75    
        72.48       72.21       71.94       71.67       71.39       71.12       70.84       70.56       70.28       70.00    
  42  -1000.0     -1000.0       79.58       79.54       79.49       79.43       79.36       79.28       79.19       79.09    
        78.98       78.86       78.73       78.58       78.43       78.26       78.08       77.90       77.72       77.53    
        77.32       77.11       76.90       76.68       76.45       76.23       76.00       75.77       75.53       75.29    
        75.05       74.80       74.55       74.30       74.05       73.79       73.53       73.27       73.01       72.74    
        72.48       72.21       71.94       71.66       71.39       71.11       70.83       70.56       70.28       70.00    
  43  -1000.0     -1000.0     -1000.0       79.50       79.44       79.38       79.31       79.24       79.15       79.05    
        78.94       78.82       78.69       78.54       78.39       78.22       78.05       77.87       77.68       77.50    
        77.29       77.08       76.87       76.65       76.43       76.21       75.98       75.75       75.51       75.27    
        75.03       74.79       74.54       74.29       74.04       73.78       73.52       73.26       73.00       72.74    
        72.47       72.20       71.93       71.66       71.38       71.11       70.83       70.56       70.28       70.00    
  44  -1000.0     -1000.0     -1000.0     -1000.0       79.40       79.34       79.27       79.19       79.10       79.01    
        78.90       78.78       78.65       78.51       78.35       78.19       78.01       77.84       77.65       77.47    
        77.26       77.06       76.85       76.63       76.41       76.19       75.96       75.73       75.50       75.26    
        75.02       74.77       74.53       74.28       74.03       73.77       73.51       73.25       72.99       72.73    
        72.46       72.19       71.92       71.65       71.38       71.11       70.83       70.55       70.28       70.00    
  45  -1000.0     -1000.0     -1000.0     -1000.0     -1000.0       79.30       79.23       79.15       79.06       78.97    
        78.86       78.74       78.62       78.48       78.32       78.16       77.99       77.81       77.63       77.44    
        77.24       77.04       76.83       76.61       76.39       76.17       75.94       75.71       75.48       75.25    
        75.01       74.76       74.52       74.27       74.02       73.76       73.51       73.25       72.99       72.72    
        72.46       72.19       71.92       71.65       71.38       71.10       70.83       70.55       70.28       70.00    
  46  -1000.0     -1000.0     -1000.0     -1000.0     -1000.0     -1000.0       79.19       79.11       79.03       78.93    
        78.83       78.72       78.59       78.45       78.30       78.13       77.97       77.79       77.61       77.42    
        77.22       77.02       76.81       76.60       76.38       76.16       75.93       75.70       75.47       75.24    
        75.00       74.75       74.51       74.26       74.01       73.76       73.50       73.24       72.98       72.72    
        72.45       72.19       71.92       71.65       71.37       71.10       70.83       70.55       70.28       70.00    
  47  -1000.0     -1000.0     -1000.0     -1000.0     -1000.0     -1000.0     -1000.0       79.07       78.99       78.90    
        78.80       78.69       78.57       78.43       78.28       78.12       77.95       77.77       77.60       77.41    
        77.21       77.01       76.80       76.59       76.37       76.15       75.92       75.69       75.46       75.23    
        74.99       74.75       74.50       74.26       74.00       73.75       73.50       73.24       72.98       72.71    
        72.45       72.18       71.91       71.64       71.37       71.10       70.83       70.55       70.28       70.00    
  48  -1000.0     -1000.0     -1000.0     -1000.0     -1000.0     -1000.0     -1000.0     -1000.0       78.96       78.88    
        78.78       78.67       78.55       78.42       78.27       78.11       77.94       77.76       77.59       77.40    
        77.20       77.00       76.79       76.58       76.36       76.14       75.92       75.69       75.46       75.22    
        74.98       74.74       74.50       74.25       74.00       73.75       73.49       73.23       72.97       72.71    
        72.45       72.18       71.91       71.64       71.37       71.10       70.82       70.55       70.28       70.00    
  49  -1000.0     -1000.0     -1000.0     -1000.0     -1000.0     -1000.0     -1000.0     -1000.0     -1000.0       78.85    
        78.77       78.66       78.54       78.41       78.26       78.10       77.93       77.76       77.58       77.40    
        77.20       76.99       76.79       76.57       76.36       76.14       75.91       75.69       75.45       75.22    
        74.98       74.74       74.50       74.25       74.00       73.75       73.49       73.23       72.97       72.71    
        72.45       72.18       71.91       71.64       71.37       71.10       70.82       70.55       70.28       70.00    
  50  -1000.0     -1000.0     -1000.0     -1000.0     -1000.0     -1000.0     -1000.0     -1000.0     -1000.0     -1000.0    
      -1000.0     -1000.0     -1000.0     -1000.0     -1000.0     -1000.0     -1000.0     -1000.0     -1000.0     -1000.0    
      -1000.0     -1000.0     -1000.0     -1000.0     -1000.0     -1000.0     -1000.0     -1000.0     -1000.0     -1000.0    
      -1000.0     -1000.0     -1000.0     -1000.0     -1000.0     -1000.0     -1000.0     -1000.0     -1000.0     -1000.0    
      -1000.0     -1000.0     -1000.0     -1000.0     -1000.0     -1000.0     -1000.0     -1000.0     -1000.0       70.00    

 HEAD WILL BE SAVED ON UNIT   51 AT END OF TIME STEP    1, STRESS PERIOD    1

 DRAWDOWN WILL BE SAVED ON UNIT   52 AT END OF TIME STEP    1, STRESS PERIOD    1
1
  VOLUMETRIC BUDGET FOR ENTIRE MODEL AT END OF TIME STEP    1, STRESS PERIOD   1
  ------------------------------------------------------------------------------

     CUMULATIVE VOLUMES      L**3       RATES FOR THIS TIME STEP      L**3/T
     ------------------                 ------------------------

           IN:                                      IN:
           ---                                      ---
             STORAGE =           0.0000               STORAGE =           0.0000
       CONSTANT HEAD =           0.0000         CONSTANT HEAD =           0.0000
               WELLS =         375.0000                 WELLS =         375.0000
       RIVER LEAKAGE =       83201.2500         RIVER LEAKAGE =       83201.2500
                  ET =           0.0000                    ET =           0.0000
            RECHARGE =       32599.9980              RECHARGE =       32599.9980

            TOTAL IN =      116176.2500              TOTAL IN =      116176.2500

          OUT:                                     OUT:
          ----                                     ----
             STORAGE =           0.0000               STORAGE =           0.0000
       CONSTANT HEAD =      114304.1875         CONSTANT HEAD =      114304.1875
               WELLS =        1500.0000                 WELLS =        1500.0000
       RIVER LEAKAGE =         105.5596         RIVER LEAKAGE =         105.5596
                  ET =         266.4746                    ET =         266.4746
            RECHARGE =           0.0000              RECHARGE =           0.0000

           TOTAL OUT =      116176.2266             TOTAL OUT =      116176.2266

            IN - OUT =       2.3438E-02              IN - OUT =       2.3438E-02

 PERCENT DISCREPANCY =           0.00     PERCENT DISCREPANCY =           0.00






         TIME SUMMARY AT END OF TIME STEP    1 IN STRESS PERIOD    1
                    SECONDS     MINUTES      HOURS       DAYS        YEARS
                    -----------------------------------------------------------
   TIME STEP LENGTH  86400.      1440.0      24.000      1.0000     2.73785E-03
 STRESS PERIOD TIME  86400.      1440.0      24.000      1.0000     2.73785E-03
         TOTAL TIME  86400.      1440.0      24.000      1.0000     2.73785E-03
1

 Run end date and time (yyyy/mm/dd hh:mm:ss): 2026/02/25  4:01:22
 Elapsed run time: 13.760 Seconds

