                                  MODFLOW-2005     
      U.S. GEOLOGICAL SURVEY MODULAR FINITE-DIFFERENCE GROUND-WATER FLOW MODEL
                            VERSION 1.12.00 2/3/2017

 LIST FILE: static_ensemble_1133133.list
                         UNIT    2

 OPENING static_ensemble_1133133.dis
 FILE TYPE:DIS   UNIT   11   STATUS:OLD    
 FORMAT:FORMATTED              ACCESS:SEQUENTIAL          

 OPENING static_ensemble_1133133.bas
 FILE TYPE:BAS6   UNIT   13   STATUS:OLD    
 FORMAT:FORMATTED              ACCESS:SEQUENTIAL          

 OPENING static_ensemble_1133133.lpf
 FILE TYPE:LPF   UNIT   15   STATUS:OLD    
 FORMAT:FORMATTED              ACCESS:SEQUENTIAL          

 OPENING static_ensemble_1133133.evt
 FILE TYPE:EVT   UNIT   22   STATUS:OLD    
 FORMAT:FORMATTED              ACCESS:SEQUENTIAL          

 OPENING static_ensemble_1133133.rch
 FILE TYPE:RCH   UNIT   19   STATUS:OLD    
 FORMAT:FORMATTED              ACCESS:SEQUENTIAL          

 OPENING static_ensemble_1133133.riv
 FILE TYPE:RIV   UNIT   18   STATUS:OLD    
 FORMAT:FORMATTED              ACCESS:SEQUENTIAL          

 OPENING static_ensemble_1133133.wel
 FILE TYPE:WEL   UNIT   20   STATUS:OLD    
 FORMAT:FORMATTED              ACCESS:SEQUENTIAL          

 OPENING static_ensemble_1133133.oc
 FILE TYPE:OC   UNIT   14   STATUS:OLD    
 FORMAT:FORMATTED              ACCESS:SEQUENTIAL          

 OPENING static_ensemble_1133133.pcg
 FILE TYPE:PCG   UNIT   27   STATUS:OLD    
 FORMAT:FORMATTED              ACCESS:SEQUENTIAL          

 OPENING static_ensemble_1133133.cbc
 FILE TYPE:DATA(BINARY)   UNIT   53   STATUS:REPLACE
 FORMAT:UNFORMATTED            ACCESS:STREAM              

 OPENING static_ensemble_1133133.hds
 FILE TYPE:DATA(BINARY)   UNIT   51   STATUS:REPLACE
 FORMAT:UNFORMATTED            ACCESS:STREAM              

 OPENING static_ensemble_1133133.ddn
 FILE TYPE:DATA(BINARY)   UNIT   52   STATUS:REPLACE
 FORMAT:UNFORMATTED            ACCESS:STREAM              

 BAS -- BASIC PACKAGE, VERSION 7, 5/2/2005 INPUT READ FROM UNIT   13
 
 MODFLOW was compiled using mixed precision
 Precision of REAL variables:           6
 Precision of DOUBLE PRECISION variables:          15

 DISCRETIZATION INPUT DATA READ FROM UNIT   11
 # DIS package for MODFLOW-2005 generated by Flopy 3.9.5
    3 LAYERS        50 ROWS        50 COLUMNS
    1 STRESS PERIOD(S) IN SIMULATION
 MODEL TIME UNIT IS DAYS
 MODEL LENGTH UNIT IS METERS
  Confining bed flag for each layer:
   0   0   0

                     DELR =   1000.00    

                     DELC =   1000.00    



           TOP ELEVATION OF LAYER 1
 READING ON UNIT   11 WITH FORMAT: (50E15.6)           



             MODEL LAYER BOTTOM EL. FOR LAYER   1
 READING ON UNIT   11 WITH FORMAT: (50E15.6)           



             MODEL LAYER BOTTOM EL. FOR LAYER   2
 READING ON UNIT   11 WITH FORMAT: (50E15.6)           



             MODEL LAYER BOTTOM EL. FOR LAYER   3
 READING ON UNIT   11 WITH FORMAT: (50E15.6)           


 STRESS PERIOD     LENGTH       TIME STEPS     MULTIPLIER FOR DELT    SS FLAG
 ----------------------------------------------------------------------------
        1         1.000000          1                    1.000         SS

 STEADY-STATE SIMULATION



 
 # BAS6 package for MODFLOW-2005 generated by Flopy 3.9.5                        
 THE FREE FORMAT OPTION HAS BEEN SELECTED



                     BOUNDARY ARRAY FOR LAYER   1
 READING ON UNIT   13 WITH FORMAT: (50I10)             



                     BOUNDARY ARRAY FOR LAYER   2
 READING ON UNIT   13 WITH FORMAT: (50I10)             



                     BOUNDARY ARRAY FOR LAYER   3
 READING ON UNIT   13 WITH FORMAT: (50I10)             

 AQUIFER HEAD WILL BE SET TO  -999.99     AT ALL NO-FLOW NODES (IBOUND=0).



                       INITIAL HEAD FOR LAYER   1
 READING ON UNIT   13 WITH FORMAT: (50E15.6)           



                       INITIAL HEAD FOR LAYER   2
 READING ON UNIT   13 WITH FORMAT: (50E15.6)           



                       INITIAL HEAD FOR LAYER   3
 READING ON UNIT   13 WITH FORMAT: (50E15.6)           
 # OC package for MODFLOW-2005 generated by Flopy 3.9.5

 OUTPUT CONTROL IS SPECIFIED ONLY AT TIME STEPS FOR WHICH OUTPUT IS DESIRED
 COMPACT CELL-BY-CELL BUDGET FILES WILL BE WRITTEN
 AUXILIARY DATA WILL BE SAVED IN CELL-BY-CELL BUDGET FILES
 HEAD PRINT FORMAT CODE IS   0    DRAWDOWN PRINT FORMAT CODE IS   0
 HEADS WILL BE SAVED ON UNIT   51    DRAWDOWNS WILL BE SAVED ON UNIT   52

 LPF -- LAYER-PROPERTY FLOW PACKAGE, VERSION 7, 5/2/2005
         INPUT READ FROM UNIT   15
 # LPF package for MODFLOW-2005 generated by Flopy 3.9.5
 CELL-BY-CELL FLOWS WILL BE SAVED ON UNIT   53
 HEAD AT CELLS THAT CONVERT TO DRY= -1.00000E+30
 No named parameters
 STORAGECOEFFICIENT OPTION:
 Read storage coefficient rather than specific storage

   LAYER FLAGS:
 LAYER       LAYTYP        LAYAVG         CHANI        LAYVKA        LAYWET
 ---------------------------------------------------------------------------
    1             1             0     1.000E+00             0             0
    2             1             0     1.000E+00             0             0
    3             1             0     1.000E+00             0             0

   INTERPRETATION OF LAYER FLAGS:
                        INTERBLOCK     HORIZONTAL    DATA IN
         LAYER TYPE   TRANSMISSIVITY   ANISOTROPY   ARRAY VKA   WETTABILITY
 LAYER      (LAYTYP)      (LAYAVG)       (CHANI)      (LAYVKA)      (LAYWET)
 ---------------------------------------------------------------------------
    1   CONVERTIBLE      HARMONIC     1.000E+00    VERTICAL K  NON-WETTABLE
    2   CONVERTIBLE      HARMONIC     1.000E+00    VERTICAL K  NON-WETTABLE
    3   CONVERTIBLE      HARMONIC     1.000E+00    VERTICAL K  NON-WETTABLE

 WETTING CAPABILITY IS NOT ACTIVE IN ANY LAYER



              HYD. COND. ALONG ROWS FOR LAYER   1
 READING ON UNIT   15 WITH FORMAT: (50E15.6)           



                VERTICAL HYD. COND. FOR LAYER   1
 READING ON UNIT   15 WITH FORMAT: (50E15.6)           



              HYD. COND. ALONG ROWS FOR LAYER   2
 READING ON UNIT   15 WITH FORMAT: (50E15.6)           



                VERTICAL HYD. COND. FOR LAYER   2
 READING ON UNIT   15 WITH FORMAT: (50E15.6)           



              HYD. COND. ALONG ROWS FOR LAYER   3
 READING ON UNIT   15 WITH FORMAT: (50E15.6)           



                VERTICAL HYD. COND. FOR LAYER   3
 READING ON UNIT   15 WITH FORMAT: (50E15.6)           

 WEL -- WELL PACKAGE, VERSION 7, 5/2/2005 INPUT READ FROM UNIT   20
 # WEL package for MODFLOW-2005 generated by Flopy 3.9.5
 No named parameters
 MAXIMUM OF      3 ACTIVE WELLS AT ONE TIME


     0 Well parameters

 RIV -- RIVER PACKAGE, VERSION 7, 5/2/2005 INPUT READ FROM UNIT   18
 # RIV package for MODFLOW-2005 generated by Flopy 3.9.5
 No named parameters
 MAXIMUM OF     49 ACTIVE RIVER REACHES AT ONE TIME
 CELL-BY-CELL FLOWS WILL BE SAVED ON UNIT   53


     0 River parameters

 EVT -- EVAPOTRANSPIRATION PACKAGE, VERSION 7, 5/2/2005
         INPUT READ FROM UNIT   22
 # EVT package for MODFLOW-2005 generated by Flopy 3.9.5
 No named parameters
 OPTION 3 -- EVAPOTRANSPIRATION FROM HIGHEST ACTIVE NODE IN EACH VERTICAL COLUMN
 CELL-BY-CELL FLOWS WILL BE SAVED ON UNIT   53


     0 Evapotranspiration parameters

 RCH -- RECHARGE PACKAGE, VERSION 7, 5/2/2005 INPUT READ FROM UNIT   19
 # RCH package for MODFLOW-2005 generated by Flopy 3.9.5
 No named parameters
 OPTION 3 -- RECHARGE TO HIGHEST ACTIVE NODE IN EACH VERTICAL COLUMN
 CELL-BY-CELL FLOWS WILL BE SAVED ON UNIT   53


     0 Recharge parameters

 PCG -- CONJUGATE-GRADIENT SOLUTION PACKAGE, VERSION 7, 5/2/2005
 # PCG package for MODFLOW-2005 generated by Flopy 3.9.5
 MAXIMUM OF   5000 CALLS OF SOLUTION ROUTINE
 MAXIMUM OF    500 INTERNAL ITERATIONS PER CALL TO SOLUTION ROUTINE
 MATRIX PRECONDITIONING TYPE :    1



                                    SOLUTION BY THE CONJUGATE-GRADIENT METHOD
                                   -------------------------------------------
                    MAXIMUM NUMBER OF CALLS TO PCG ROUTINE =     5000
                        MAXIMUM ITERATIONS PER CALL TO PCG =      500
                               MATRIX PRECONDITIONING TYPE =        1
        RELAXATION FACTOR (ONLY USED WITH PRECOND. TYPE 1) =    0.97000E+00
 PARAMETER OF POLYNOMIAL PRECOND. = 2 (2) OR IS CALCULATED :        0
                         HEAD CHANGE CRITERION FOR CLOSURE =    0.10000E-04
                     RESIDUAL CHANGE CRITERION FOR CLOSURE =    0.10000E-04
            PCG HEAD AND RESIDUAL CHANGE PRINTOUT INTERVAL =      999
     PRINTING FROM SOLVER IS LIMITED(1) OR SUPPRESSED (>1) =        3
                            STEADY-STATE DAMPING PARAMETER =    0.10000E-01
                               TRANSIENT DAMPING PARAMETER =    0.10000E-01
1
                            STRESS PERIOD NO.    1, LENGTH =   1.000000    
                            -----------------------------------------------

                              NUMBER OF TIME STEPS =     1

                               MULTIPLIER FOR DELT =     1.000

                            INITIAL TIME STEP SIZE =   1.000000    

 WELL NO.  LAYER   ROW   COL   STRESS RATE         
 --------------------------------------------------
      1      3     22     39      -1500.    
      2      1     13     15       0.000    
      3      1     25     26       375.0    

      3 WELLS

 REACH NO.  LAYER   ROW   COL     STAGE      CONDUCTANCE     BOTTOM EL.         
 -------------------------------------------------------------------------------
      1      1     25      2       100.5           5000.           98.00    
      2      1     25      3       99.50           5000.           97.00    
      3      1     25      4       98.50           5000.           96.00    
      4      1     25      5       97.50           5000.           95.00    
      5      1     25      6       96.50           5000.           94.00    
      6      1     25      7       95.50           5000.           93.00    
      7      1     25      8       94.50           5000.           92.00    
      8      1     25      9       93.50           5000.           91.00    
      9      1     25     10       92.50           5000.           90.00    
     10      1     25     11       91.50           5000.           89.00    
     11      1     25     12       90.50           5000.           88.00    
     12      1     25     13       89.50           5000.           87.00    
     13      1     25     14       88.50           5000.           86.00    
     14      1     25     15       87.50           5000.           85.00    
     15      1     25     16       86.50           5000.           84.00    
     16      1     25     17       85.50           5000.           83.00    
     17      1     25     18       84.50           5000.           82.00    
     18      1     25     19       83.50           5000.           81.00    
     19      1     25     20       82.50           5000.           80.00    
     20      1     25     21       81.50           5000.           79.00    
     21      1     25     22       80.50           5000.           78.00    
     22      1     25     23       79.50           5000.           77.00    
     23      1     25     24       78.50           5000.           76.00    
     24      1     25     25       77.50           5000.           75.00    
     25      1     25     26       77.40           5000.           74.90    
     26      1     25     27       77.30           5000.           74.80    
     27      1     25     28       77.20           5000.           74.70    
     28      1     25     29       77.10           5000.           74.60    
     29      1     25     30       77.00           5000.           74.50    
     30      1     25     31       76.90           5000.           74.40    
     31      1     25     32       76.80           5000.           74.30    
     32      1     25     33       76.70           5000.           74.20    
     33      1     25     34       76.60           5000.           74.10    
     34      1     25     35       76.50           5000.           74.00    
     35      1     25     36       76.40           5000.           73.90    
     36      1     25     37       76.30           5000.           73.80    
     37      1     25     38       76.20           5000.           73.70    
     38      1     25     39       76.10           5000.           73.60    
     39      1     25     40       76.00           5000.           73.50    
     40      1     25     41       75.90           5000.           73.40    
     41      1     25     42       75.80           5000.           73.30    
     42      1     25     43       75.70           5000.           73.20    
     43      1     25     44       75.60           5000.           73.10    
     44      1     25     45       75.50           5000.           73.00    
     45      1     25     46       75.40           5000.           72.90    
     46      1     25     47       75.30           5000.           72.80    
     47      1     25     48       75.20           5000.           72.70    
     48      1     25     49       75.10           5000.           72.60    
     49      1     25     50       75.00           5000.           72.50    

     49 RIVER REACHES



                         ET SURFACE
 READING ON UNIT   22 WITH FORMAT: (50E15.6)           



            EVAPOTRANSPIRATION RATE
 READING ON UNIT   22 WITH FORMAT: (50E15.6)           

         EXTINCTION DEPTH =   10.0000    



                           RECHARGE
 READING ON UNIT   19 WITH FORMAT: (50E15.6)           
 
 SOLVING FOR HEAD 

 OUTPUT CONTROL FOR STRESS PERIOD    1   TIME STEP    1
    SAVE HEAD FOR ALL LAYERS
    SAVE DRAWDOWN FOR ALL LAYERS
    SAVE BUDGET
    PRINT HEAD FOR ALL LAYERS
    PRINT BUDGET
 UBDSV2 SAVING "   CONSTANT HEAD" ON UNIT  53 AT TIME STEP  1, STRESS PERIOD   1
 UBDSV1 SAVING "FLOW RIGHT FACE " ON UNIT  53 AT TIME STEP  1, STRESS PERIOD   1
 UBDSV1 SAVING "FLOW FRONT FACE " ON UNIT  53 AT TIME STEP  1, STRESS PERIOD   1
 UBDSV1 SAVING "FLOW LOWER FACE " ON UNIT  53 AT TIME STEP  1, STRESS PERIOD   1
 UBDSV4 SAVING "   RIVER LEAKAGE" ON UNIT  53 AT TIME STEP  1, STRESS PERIOD   1
 UBDSV3 SAVING "              ET" ON UNIT  53 AT TIME STEP  1, STRESS PERIOD   1
 UBDSV3 SAVING "        RECHARGE" ON UNIT  53 AT TIME STEP  1, STRESS PERIOD   1
1
              HEAD IN LAYER   1 AT END OF TIME STEP   1 IN STRESS PERIOD    1
  ---------------------------------------------------------------------------

            1           2           3           4           5           6           7           8           9          10
           11          12          13          14          15          16          17          18          19          20
           21          22          23          24          25          26          27          28          29          30
           31          32          33          34          35          36          37          38          39          40
           41          42          43          44          45          46          47          48          49          50
 ........................................................................................................................
   1  -1000.0     -1000.0     -1000.0     -1000.0     -1000.0     -1000.0     -1000.0     -1000.0     -1000.0     -1000.0    
      -1000.0     -1000.0     -1000.0     -1000.0     -1000.0     -1000.0     -1000.0     -1000.0     -1000.0     -1000.0    
      -1000.0     -1000.0     -1000.0     -1000.0     -1000.0     -1000.0     -1000.0     -1000.0     -1000.0     -1000.0    
      -1000.0     -1000.0     -1000.0     -1000.0     -1000.0     -1000.0     -1000.0     -1000.0     -1000.0     -1000.0    
      -1000.0     -1000.0     -1000.0     -1000.0     -1000.0     -1000.0     -1000.0     -1000.0     -1000.0       70.00    
   2  -1000.0     -1000.0     -1000.0     -1000.0     -1000.0       102.8       102.5       102.1       101.6       101.0    
        100.5       99.86       99.14       98.33       97.43       96.44       95.46       94.50       93.55       92.62    
        91.75       90.90       90.06       89.22       88.40       87.59       86.79       86.01       85.23       84.47    
        83.72       82.98       82.24       81.52       80.80       80.09       79.38       78.68       77.98       77.29    
        76.59       75.89       75.19       74.48       73.76       73.04       72.30       71.55       70.79       70.00    
   3  -1000.0     -1000.0     -1000.0     -1000.0       103.1       102.9       102.5       102.1       101.5       101.1    
        100.5       99.85       99.12       98.31       97.41       96.41       95.44       94.47       93.53       92.59    
        91.73       90.87       90.03       89.20       88.38       87.57       86.77       85.99       85.21       84.45    
        83.70       82.96       82.22       81.50       80.79       80.08       79.37       78.67       77.97       77.28    
        76.58       75.88       75.18       74.47       73.76       73.04       72.30       71.55       70.79       70.00    
   4  -1000.0     -1000.0     -1000.0       103.3       103.2       102.9       102.5       102.0       101.6       101.1    
        100.5       99.83       99.09       98.27       97.36       96.37       95.39       94.42       93.48       92.54    
        91.68       90.82       89.98       89.15       88.33       87.52       86.72       85.94       85.17       84.41    
        83.66       82.92       82.19       81.47       80.75       80.05       79.34       78.64       77.95       77.26    
        76.56       75.87       75.17       74.46       73.75       73.03       72.30       71.55       70.79       70.00    
   5  -1000.0     -1000.0       103.5       103.4       103.1       102.8       102.4       102.0       101.6       101.0    
        100.4       99.77       99.03       98.20       97.29       96.29       95.31       94.35       93.40       92.47    
        91.60       90.75       89.90       89.07       88.25       87.44       86.65       85.87       85.10       84.34    
        83.59       82.86       82.13       81.41       80.70       80.00       79.30       78.61       77.92       77.22    
        76.53       75.84       75.15       74.44       73.74       73.02       72.29       71.54       70.78       70.00    
   6  -1000.0       103.6       103.5       103.3       103.1       102.7       102.4       102.0       101.5       101.0    
        100.4       99.70       98.94       98.11       97.20       96.20       95.21       94.25       93.30       92.36    
        91.50       90.64       89.80       88.97       88.15       87.34       86.55       85.77       85.01       84.25    
        83.51       82.78       82.06       81.34       80.64       79.94       79.25       78.56       77.87       77.18    
        76.50       75.81       75.12       74.42       73.72       73.00       72.28       71.54       70.78       70.00    
   7  -1000.0       103.5       103.4       103.2       102.9       102.6       102.3       101.9       101.4       100.9    
        100.3       99.59       98.83       97.99       97.07       96.07       95.08       94.12       93.17       92.24    
        91.37       90.51       89.67       88.84       88.02       87.22       86.43       85.65       84.89       84.14    
        83.41       82.68       81.96       81.26       80.56       79.86       79.18       78.49       77.81       77.13    
        76.45       75.77       75.09       74.39       73.69       72.99       72.26       71.53       70.77       70.00    
   8  -1000.0       103.4       103.2       103.0       102.8       102.5       102.2       101.8       101.3       100.8    
        100.1       99.46       98.69       97.85       96.92       95.92       94.93       93.96       93.01       92.08    
        91.21       90.35       89.51       88.68       87.87       87.07       86.28       85.51       84.75       84.01    
        83.28       82.56       81.85       81.15       80.46       79.77       79.10       78.42       77.75       77.08    
        76.40       75.73       75.05       74.36       73.67       72.97       72.25       71.52       70.77       70.00    
   9  -1000.0       103.2       103.0       102.9       102.7       102.4       102.1       101.7       101.2       100.6    
        99.99       99.29       98.52       97.67       96.74       95.73       94.74       93.77       92.82       91.89    
        91.02       90.17       89.33       88.50       87.69       86.89       86.11       85.34       84.59       83.85    
        83.13       82.42       81.72       81.03       80.34       79.67       79.00       78.33       77.67       77.01    
        76.34       75.68       75.01       74.33       73.64       72.94       72.23       71.51       70.76       70.00    
  10  -1000.0       103.0       102.9       102.8       102.5       102.3       101.9       101.5       101.0       100.4    
        99.80       99.10       98.32       97.46       96.53       95.51       94.52       93.55       92.60       91.68    
        90.81       89.95       89.11       88.28       87.47       86.68       85.90       85.14       84.40       83.67    
        82.96       82.25       81.56       80.88       80.21       79.55       78.89       78.24       77.58       76.93    
        76.28       75.62       74.96       74.29       73.61       72.92       72.22       71.50       70.76       70.00    
  11  -1000.0       102.8       102.7       102.6       102.4       102.1       101.7       101.3       100.8       100.2    
        99.58       98.87       98.08       97.22       96.28       95.27       94.27       93.30       92.35       91.43    
        90.56       89.70       88.86       88.04       87.23       86.44       85.67       84.92       84.18       83.46    
        82.76       82.07       81.39       80.72       80.07       79.42       78.77       78.13       77.49       76.85    
        76.21       75.56       74.91       74.25       73.58       72.90       72.20       71.49       70.75       70.00    
  12  -1000.0       102.6       102.5       102.4       102.1       101.9       101.5       101.1       100.5       99.97    
        99.32       98.60       97.81       96.95       96.00       94.98       93.99       93.02       92.07       91.15    
        90.28       89.42       88.58       87.76       86.96       86.17       85.41       84.66       83.94       83.23    
        82.54       81.86       81.20       80.55       79.90       79.27       78.64       78.01       77.39       76.76    
        76.13       75.50       74.86       74.21       73.55       72.87       72.18       71.48       70.75       70.00    
  13  -1000.0       102.4       102.3       102.1       101.9       101.6       101.2       100.8       100.3       99.69    
        99.03       98.31       97.51       96.63       95.69       94.66       93.67       92.70       91.75       90.84    
        89.96       89.11       88.27       87.45       86.65       85.87       85.12       84.38       83.67       82.97    
        82.29       81.63       80.98       80.35       79.72       79.10       78.49       77.88       77.27       76.67    
        76.05       75.44       74.81       74.17       73.52       72.86       72.17       71.47       70.74       70.00    
  14  -1000.0       102.1       102.0       101.9       101.6       101.3       101.0       100.5       99.97       99.37    
        98.71       97.97       97.16       96.28       95.33       94.30       93.31       92.34       91.40       90.49    
        89.61       88.75       87.92       87.10       86.31       85.54       84.79       84.06       83.36       82.68    
        82.02       81.38       80.75       80.13       79.53       78.93       78.33       77.75       77.16       76.57    
        75.97       75.37       74.76       74.14       73.50       72.84       72.16       71.47       70.74       70.00    
  15  -1000.0       101.9       101.8       101.6       101.4       101.0       100.6       100.2       99.63       99.02    
        98.34       97.59       96.78       95.89       94.93       93.90       92.91       91.94       91.00       90.10    
        89.22       88.36       87.53       86.71       85.92       85.16       84.42       83.71       83.03       82.37    
        81.72       81.10       80.49       79.90       79.31       78.74       78.17       77.60       77.04       76.47    
        75.89       75.31       74.72       74.11       73.48       72.84       72.16       71.47       70.75       70.00    
  16  -1000.0       101.6       101.5       101.3       101.1       100.7       100.3       99.82       99.26       98.63    
        97.94       97.18       96.35       95.46       94.49       93.46       92.46       91.50       90.57       89.67    
        88.79       87.93       87.09       86.28       85.50       84.74       84.02       83.32       82.66       82.02    
        81.40       80.80       80.21       79.64       79.09       78.54       77.99       77.45       76.91       76.37    
        75.82       75.26       74.69       74.10       73.48       72.84       72.18       71.48       70.75       70.00    
  17  -1000.0       101.3       101.2       101.0       100.7       100.4       99.94       99.43       98.85       98.20    
        97.49       96.72       95.88       94.97       94.00       92.97       91.97       91.01       90.09       89.20    
        88.31       87.45       86.61       85.80       85.02       84.28       83.57       82.89       82.25       81.63    
        81.04       80.47       79.91       79.37       78.84       78.32       77.81       77.30       76.79       76.27    
        75.75       75.22       74.67       74.10       73.50       72.87       72.21       71.51       70.77       70.00    
  18  -1000.0       101.0       100.9       100.7       100.4      100.00       99.54       99.00       98.40       97.73    
        97.00       96.20       95.35       94.44       93.46       92.42       91.42       90.47       89.56       88.69    
        87.78       86.91       86.07       85.27       84.49       83.76       83.07       82.42       81.80       81.21    
        80.65       80.11       79.59       79.08       78.59       78.10       77.62       77.14       76.66       76.18    
        75.69       75.19       74.66       74.12       73.54       72.92       72.26       71.55       70.79       70.00    
  19  -1000.0       100.7       100.6       100.3       100.0       99.60       99.11       98.54       97.91       97.21    
        96.45       95.64       94.77       93.84       92.86       91.82       90.82       89.87       88.97       88.12    
        87.20       86.31       85.47       84.66       83.90       83.17       82.51       81.89       81.30       80.75    
        80.23       79.73       79.25       78.78       78.32       77.87       77.43       76.99       76.55       76.10    
        75.65       75.18       74.69       74.17       73.61       73.01       72.35       71.63       70.84       70.00    
  20  -1000.0       100.4       100.3       100.0       99.64       99.18       98.65       98.04       97.37       96.64    
        95.85       95.02       94.13       93.19       92.20       91.15       90.15       89.21       88.32       87.49    
        86.55       85.64       84.78       83.98       83.22       82.52       81.88       81.30       80.76       80.25    
        79.77       79.31       78.88       78.45       78.04       77.63       77.23       76.83       76.43       76.03    
        75.62       75.19       74.74       74.26       73.74       73.15       72.49       71.75       70.91       70.00    
  21  -1000.0       100.1       99.97       99.67       99.26       98.74       98.15       97.49       96.78       96.01    
        95.19       94.33       93.42       92.46       91.46       90.41       89.41       88.48       87.61       86.80    
        85.81       84.88       84.00       83.19       82.45       81.78       81.18       80.64       80.15       79.70    
        79.27       78.87       78.48       78.11       77.74       77.39       77.03       76.68       76.33       75.98    
        75.61       75.23       74.83       74.40       73.91       73.36       72.72       71.95       71.04       70.00    
  22  -1000.0       99.92       99.72       99.36       98.87       98.28       97.61       96.89       96.12       95.31    
        94.45       93.56       92.63       91.66       90.65       89.59       88.59       87.66       86.80       86.03    
        84.98       84.00       83.11       82.29       81.55       80.92       80.38       79.91       79.49       79.10    
        78.74       78.39       78.06       77.75       77.44       77.14       76.84       76.54       76.24       75.94    
        75.63       75.31       74.97       74.59       74.17       73.67       73.05       72.27       71.26       70.00    
  23  -1000.0       99.83       99.55       99.07       98.47       97.78       97.03       96.23       95.40       94.53    
        93.63       92.71       91.75       90.77       89.75       88.70       87.70       86.76       85.91       85.16    
        84.03       83.01       82.08       81.25       80.52       79.95       79.50       79.11       78.77       78.46    
        78.17       77.90       77.63       77.38       77.13       76.89       76.65       76.41       76.17       75.93    
        75.68       75.43       75.15       74.85       74.51       74.10       73.56       72.81       71.69       70.00    
  24  -1000.0       99.91       99.47       98.82       98.06       97.24       96.39       95.50       94.59       93.66    
        92.72       91.76       90.78       89.79       88.78       87.72       86.72       85.77       84.89       84.15    
        82.93       81.88       80.91       80.03       79.27       78.83       78.50       78.23       77.99       77.78    
        77.57       77.38       77.19       77.01       76.83       76.65       76.47       76.30       76.12       75.95    
        75.77       75.59       75.39       75.18       74.95       74.67       74.29       73.71       72.61       70.00    
  25  -1000.0       100.3       99.50       98.56       97.60       96.63       95.65       94.67       93.68       92.69    
        91.70       90.70       89.71       88.70       87.70       86.68       85.68       84.69       83.71       82.81    
        81.60       80.59       79.59       78.60       77.64       77.55       77.37       77.26       77.15       77.05    
        76.94       76.84       76.73       76.62       76.52       76.42       76.31       76.21       76.10       76.00    
        75.89       75.79       75.68       75.58       75.47       75.36       75.24       75.11       74.85       70.00    
  26  -1000.0       99.95       99.51       98.86       98.11       97.29       96.43       95.54       94.63       93.71    
        92.76       91.80       90.83       89.83       88.81       87.76       86.76       85.81       84.93       84.19    
        82.96       81.90       80.93       80.04       79.28       78.85       78.51       78.24       78.01       77.80    
        77.60       77.40       77.22       77.04       76.86       76.68       76.50       76.33       76.15       75.97    
        75.79       75.60       75.40       75.19       74.95       74.66       74.29       73.71       72.61       70.00    
  27  -1000.0       99.91       99.63       99.16       98.56       97.88       97.13       96.33       95.49       94.62    
        93.72       92.80       91.84       90.86       89.84       88.78       87.78       86.85       85.99       85.25    
        84.11       83.09       82.16       81.31       80.58       80.02       79.56       79.17       78.83       78.52    
        78.24       77.96       77.70       77.45       77.20       76.95       76.71       76.46       76.22       75.97    
        75.72       75.46       75.17       74.87       74.52       74.10       73.56       72.81       71.69       70.00    
  28  -1000.0       100.0       99.85       99.49       99.00       98.42       97.76       97.03       96.26       95.45    
        94.59       93.70       92.77       91.79       90.78       89.72       88.72       87.79       86.93       86.16    
        85.11       84.13       83.22       82.40       81.66       81.03       80.49       80.01       79.59       79.20    
        78.84       78.49       78.16       77.84       77.53       77.22       76.92       76.62       76.31       76.01    
        75.69       75.36       75.01       74.62       74.19       73.68       73.06       72.28       71.26       70.00    
  29  -1000.0       100.3       100.1       99.84       99.43       98.92       98.33       97.68       96.96       96.19    
        95.38       94.51       93.60       92.64       91.64       90.58       89.59       88.65       87.78       86.97    
        85.98       85.04       84.16       83.35       82.60       81.92       81.32       80.78       80.29       79.83    
        79.40       79.00       78.61       78.23       77.86       77.50       77.14       76.79       76.43       76.07    
        75.69       75.30       74.89       74.45       73.95       73.39       72.74       71.96       71.04       70.00    
  30  -1000.0       100.6       100.4       100.2       99.85       99.40       98.87       98.26       97.59       96.86    
        96.08       95.24       94.35       93.41       92.42       91.36       90.37       89.42       88.54       87.70    
        86.76       85.85       84.98       84.17       83.40       82.70       82.05       81.46       80.92       80.41    
        79.93       79.47       79.03       78.60       78.18       77.77       77.36       76.96       76.55       76.14    
        75.72       75.28       74.82       74.32       73.79       73.19       72.52       71.77       70.92       70.00    
  31  -1000.0       100.9       100.8       100.6       100.3       99.85       99.36       98.80       98.17       97.47    
        96.72       95.90       95.03       94.10       93.12       92.07       91.07       90.12       89.22       88.37    
        87.45       86.56       85.71       84.89       84.11       83.38       82.71       82.08       81.49       80.93    
        80.41       79.90       79.42       78.94       78.48       78.03       77.58       77.13       76.68       76.23    
        75.76       75.28       74.78       74.25       73.68       73.06       72.39       71.65       70.85       70.00    
  32  -1000.0       101.2       101.1       100.9       100.6       100.3       99.81       99.29       98.69       98.02    
        97.29       96.50       95.65       94.73       93.75       92.71       91.71       90.75       89.84       88.97    
        88.07       87.19       86.35       85.53       84.74       83.99       83.29       82.63       82.01       81.42    
        80.85       80.31       79.78       79.27       78.77       78.28       77.79       77.30       76.82       76.32    
        75.82       75.30       74.77       74.21       73.61       72.98       72.30       71.58       70.81       70.00    
  33  -1000.0       101.6       101.5       101.3       101.0       100.7       100.2       99.74       99.16       98.52    
        97.81       97.04       96.20       95.29       94.32       93.28       92.28       91.32       90.40       89.52    
        88.63       87.76       86.92       86.10       85.30       84.54       83.82       83.13       82.48       81.86    
        81.26       80.68       80.12       79.58       79.04       78.52       78.00       77.48       76.95       76.43    
        75.89       75.35       74.78       74.20       73.58       72.94       72.26       71.54       70.79       70.00    
  34  -1000.0       101.9       101.8       101.6       101.4       101.0       100.6       100.2       99.60       98.97    
        98.28       97.52       96.70       95.80       94.84       93.80       92.80       91.84       90.91       90.02    
        89.13       88.27       87.43       86.61       85.80       85.03       84.29       83.59       82.91       82.26    
        81.64       81.03       80.44       79.87       79.30       78.75       78.19       77.64       77.09       76.54    
        75.98       75.40       74.81       74.21       73.58       72.92       72.24       71.52       70.77       70.00    
  35  -1000.0       102.2       102.1       102.0       101.7       101.4       101.0       100.5       99.99       99.39    
        98.71       97.96       97.15       96.26       95.30       94.27       93.27       92.31       91.37       90.47    
        89.59       88.73       87.88       87.06       86.25       85.47       84.72       84.00       83.31       82.64    
        81.99       81.36       80.74       80.14       79.55       78.96       78.38       77.81       77.23       76.65    
        76.06       75.47       74.86       74.23       73.59       72.92       72.23       71.51       70.77       70.00    
  36  -1000.0       102.5       102.4       102.3       102.0       101.7       101.3       100.9       100.4       99.76    
        99.09       98.36       97.55       96.67       95.72       94.69       93.69       92.72       91.78       90.87    
        90.00       89.14       88.29       87.47       86.66       85.87       85.11       84.37       83.66       82.97    
        82.30       81.65       81.01       80.39       79.77       79.17       78.56       77.96       77.36       76.76    
        76.15       75.54       74.91       74.27       73.61       72.93       72.24       71.51       70.77       70.00    
  37  -1000.0       102.8       102.7       102.5       102.3       102.0       101.6       101.2       100.7       100.1    
        99.44       98.71       97.92       97.04       96.10       95.07       94.07       93.10       92.16       91.24    
        90.36       89.50       88.66       87.83       87.02       86.23       85.46       84.71       83.99       83.28    
        82.59       81.92       81.27       80.62       79.99       79.36       78.73       78.11       77.49       76.87    
        76.25       75.61       74.97       74.31       73.64       72.95       72.25       71.52       70.77       70.00    
  38  -1000.0       103.0       102.9       102.8       102.6       102.3       101.9       101.5       101.0       100.4    
        99.75       99.04       98.24       97.38       96.43       95.41       94.42       93.44       92.50       91.57    
        90.70       89.84       88.99       88.16       87.34       86.55       85.77       85.01       84.28       83.56    
        82.86       82.17       81.50       80.84       80.18       79.54       78.89       78.26       77.62       76.98    
        76.34       75.69       75.03       74.36       73.68       72.98       72.26       71.53       70.78       70.00    
  39  -1000.0       103.2       103.2       103.0       102.8       102.5       102.2       101.7       101.2       100.7    
        100.0       99.32       98.53       97.67       96.73       95.72       94.72       93.75       92.80       91.87    
        91.00       90.13       89.29       88.45       87.64       86.83       86.05       85.29       84.54       83.81    
        83.10       82.40       81.71       81.03       80.36       79.70       79.04       78.39       77.73       77.08    
        76.42       75.76       75.09       74.41       73.71       73.01       72.28       71.54       70.78       70.00    
  40  -1000.0       103.4       103.4       103.2       103.0       102.7       102.4       102.0       101.5       100.9    
        100.3       99.57       98.79       97.94       97.00       95.99       94.99       94.02       93.07       92.14    
        91.26       90.40       89.55       88.72       87.90       87.09       86.30       85.53       84.78       84.04    
        83.31       82.60       81.90       81.21       80.53       79.85       79.18       78.51       77.84       77.17    
        76.50       75.83       75.14       74.45       73.75       73.03       72.30       71.56       70.79       70.00    
  41  -1000.0       103.6       103.5       103.4       103.2       102.9       102.6       102.2       101.7       101.1    
        100.5       99.79       99.02       98.17       97.24       96.22       95.23       94.26       93.31       92.37    
        91.50       90.64       89.79       88.95       88.13       87.32       86.52       85.75       84.99       84.24    
        83.50       82.78       82.07       81.37       80.67       79.99       79.30       78.62       77.94       77.26    
        76.58       75.89       75.20       74.50       73.79       73.06       72.32       71.57       70.80       70.00    
  42  -1000.0       103.8       103.7       103.6       103.4       103.1       102.7       102.3       101.8       101.3    
        100.7       99.98       99.21       98.37       97.44       96.43       95.44       94.47       93.51       92.58    
        91.71       90.84       89.99       89.15       88.33       87.52       86.72       85.94       85.17       84.41    
        83.67       82.94       82.22       81.51       80.80       80.11       79.41       78.72       78.03       77.34    
        76.65       75.95       75.25       74.54       73.82       73.09       72.34       71.58       70.80       70.00    
  43  -1000.0       104.0       103.9       103.7       103.5       103.2       102.9       102.5       102.0       101.4    
        100.8       100.1       99.38       98.53       97.61       96.60       95.62       94.65       93.69       92.76    
        91.88       91.02       90.17       89.33       88.50       87.69       86.89       86.10       85.33       84.57    
        83.82       83.08       82.35       81.63       80.92       80.21       79.51       78.81       78.11       77.41    
        76.71       76.00       75.29       74.58       73.85       73.11       72.36       71.60       70.81       70.00    
  44  -1000.0       104.2       104.1       103.9       103.6       103.3       103.0       102.6       102.1       101.6    
        101.0       100.3       99.51       98.67       97.76       96.75       95.77       94.80       93.84       92.91    
        92.04       91.17       90.32       89.48       88.65       87.84       87.03       86.24       85.46       84.70    
        83.94       83.20       82.46       81.74       81.01       80.30       79.59       78.88       78.18       77.47    
        76.76       76.05       75.33       74.61       73.88       73.14       72.38       71.61       70.81       70.00    
  45  -1000.0       104.2       104.2       104.0       103.7       103.4       103.0       102.6       102.2       101.6    
        101.0       100.4       99.62       98.79       97.87       96.87       95.89       94.92       93.97       93.03    
        92.16       91.30       90.45       89.60       88.77       87.96       87.15       86.36       85.58       84.81    
        84.05       83.30       82.56       81.82       81.10       80.37       79.66       78.94       78.23       77.52    
        76.81       76.09       75.37       74.64       73.90       73.15       72.39       71.62       70.82       70.00    
  46  -1000.0     -1000.0       104.2       104.0       103.8       103.5       103.0       102.7       102.2       101.7    
        101.1       100.4       99.70       98.87       97.96       96.97       95.98       95.02       94.07       93.13    
        92.26       91.40       90.54       89.70       88.87       88.05       87.25       86.45       85.67       84.89    
        84.13       83.37       82.63       81.89       81.16       80.43       79.71       78.99       78.28       77.56    
        76.84       76.12       75.39       74.66       73.92       73.17       72.40       71.62       70.82       70.00    
  47  -1000.0     -1000.0     -1000.0       104.0       103.8       103.5       103.1       102.7       102.2       101.7    
        101.1       100.5       99.76       98.94       98.03       97.04       96.06       95.09       94.14       93.20    
        92.33       91.47       90.62       89.78       88.94       88.12       87.32       86.52       85.73       84.96    
        84.19       83.43       82.68       81.94       81.21       80.48       79.75       79.03       78.31       77.59    
        76.87       76.14       75.42       74.68       73.94       73.18       72.41       71.63       70.83       70.00    
  48  -1000.0     -1000.0     -1000.0     -1000.0       103.7       103.5       103.2       102.8       102.2       101.7    
        101.2       100.5       99.79       98.98       98.07       97.08       96.10       95.14       94.19       93.25    
        92.38       91.52       90.67       89.82       88.99       88.17       87.36       86.56       85.78       85.00    
        84.23       83.47       82.72       81.98       81.24       80.51       79.78       79.06       78.33       77.61    
        76.89       76.16       75.43       74.69       73.95       73.19       72.42       71.63       70.83       70.00    
  49  -1000.0     -1000.0     -1000.0     -1000.0     -1000.0       103.4       103.2       102.8       102.3       101.7    
        101.2       100.5       99.81       98.99       98.09       97.10       96.13       95.16       94.21       93.28    
        92.41       91.54       90.69       89.85       89.02       88.20       87.39       86.59       85.80       85.02    
        84.25       83.49       82.74       82.00       81.26       80.52       79.80       79.07       78.35       77.62    
        76.90       76.17       75.44       74.70       73.95       73.19       72.42       71.64       70.83       70.00    
  50  -1000.0     -1000.0     -1000.0     -1000.0     -1000.0     -1000.0     -1000.0     -1000.0     -1000.0     -1000.0    
      -1000.0     -1000.0     -1000.0     -1000.0     -1000.0     -1000.0     -1000.0     -1000.0     -1000.0     -1000.0    
      -1000.0     -1000.0     -1000.0     -1000.0     -1000.0     -1000.0     -1000.0     -1000.0     -1000.0     -1000.0    
      -1000.0     -1000.0     -1000.0     -1000.0     -1000.0     -1000.0     -1000.0     -1000.0     -1000.0     -1000.0    
      -1000.0     -1000.0     -1000.0     -1000.0     -1000.0     -1000.0     -1000.0     -1000.0     -1000.0       70.00    
1
              HEAD IN LAYER   2 AT END OF TIME STEP   1 IN STRESS PERIOD    1
  ---------------------------------------------------------------------------

            1           2           3           4           5           6           7           8           9          10
           11          12          13          14          15          16          17          18          19          20
           21          22          23          24          25          26          27          28          29          30
           31          32          33          34          35          36          37          38          39          40
           41          42          43          44          45          46          47          48          49          50
 ........................................................................................................................
   1  -1000.0     -1000.0     -1000.0     -1000.0     -1000.0     -1000.0     -1000.0     -1000.0     -1000.0     -1000.0    
      -1000.0     -1000.0     -1000.0     -1000.0     -1000.0     -1000.0     -1000.0     -1000.0     -1000.0     -1000.0    
      -1000.0     -1000.0     -1000.0     -1000.0     -1000.0     -1000.0     -1000.0     -1000.0     -1000.0     -1000.0    
      -1000.0     -1000.0     -1000.0     -1000.0     -1000.0     -1000.0     -1000.0     -1000.0     -1000.0     -1000.0    
      -1000.0     -1000.0     -1000.0     -1000.0     -1000.0     -1000.0     -1000.0     -1000.0     -1000.0       70.00    
   2  -1000.0     -1000.0     -1000.0     -1000.0     -1000.0     -1000.0     -1000.0       102.1       101.6       101.0    
        100.5       99.86       99.14       98.33       97.43       96.44       95.46       94.50       93.55       92.62    
        91.69       90.77       89.88       89.01       88.16       87.32       86.50       85.69       84.90       84.13    
        83.36       82.61       81.87       81.13       80.41       79.70       78.99       78.29       77.59       76.90    
        76.21       75.53       74.84       74.16       73.47       72.78       72.09       71.40       70.70       70.00    
   3  -1000.0     -1000.0     -1000.0     -1000.0     -1000.0     -1000.0       102.5       102.1       101.5       101.1    
        100.5       99.85       99.12       98.31       97.41       96.41       95.44       94.47       93.53       92.59    
        91.66       90.75       89.86       88.99       88.13       87.30       86.48       85.67       84.88       84.11    
        83.34       82.59       81.85       81.12       80.40       79.68       78.98       78.28       77.58       76.89    
        76.20       75.52       74.84       74.15       73.47       72.78       72.09       71.39       70.70       70.00    
   4  -1000.0     -1000.0     -1000.0     -1000.0     -1000.0       102.9       102.5       102.0       101.6       101.1    
        100.5       99.82       99.09       98.27       97.36       96.37       95.39       94.42       93.48       92.54    
        91.61       90.70       89.81       88.94       88.09       87.25       86.43       85.63       84.84       84.07    
        83.31       82.56       81.82       81.09       80.37       79.66       78.95       78.25       77.56       76.87    
        76.19       75.50       74.82       74.14       73.46       72.77       72.08       71.39       70.70       70.00    
   5  -1000.0     -1000.0     -1000.0     -1000.0       103.1       102.8       102.4       102.0       101.6       101.0    
        100.4       99.77       99.03       98.20       97.29       96.29       95.31       94.35       93.40       92.47    
        91.53       90.62       89.74       88.87       88.02       87.18       86.37       85.57       84.78       84.01    
        83.25       82.50       81.77       81.04       80.32       79.61       78.91       78.22       77.53       76.84    
        76.16       75.48       74.80       74.12       73.44       72.76       72.07       71.39       70.69       70.00    
   6  -1000.0     -1000.0     -1000.0       103.3       103.1       102.7       102.4       102.0       101.5       101.0    
        100.4       99.70       98.94       98.11       97.20       96.20       95.21       94.25       93.30       92.36    
        91.43       90.52       89.64       88.77       87.92       87.09       86.28       85.48       84.70       83.93    
        83.18       82.43       81.70       80.98       80.26       79.56       78.86       78.17       77.49       76.80    
        76.13       75.45       74.77       74.10       73.42       72.74       72.06       71.38       70.69       70.00    
   7  -1000.0     -1000.0       103.4       103.2       102.9       102.6       102.3       101.9       101.4       100.9    
        100.3       99.59       98.83       97.99       97.07       96.07       95.08       94.12       93.17       92.23    
        91.30       90.40       89.51       88.65       87.81       86.98       86.17       85.38       84.60       83.83    
        83.08       82.34       81.62       80.90       80.19       79.49       78.80       78.11       77.43       76.76    
        76.08       75.41       74.74       74.07       73.40       72.73       72.05       71.37       70.69       70.00    
   8  -1000.0       103.4       103.2       103.0       102.8       102.5       102.2       101.8       101.3       100.8    
        100.1       99.46       98.69       97.85       96.92       95.92       94.93       93.96       93.01       92.08    
        91.15       90.24       89.36       88.50       87.66       86.84       86.04       85.25       84.48       83.72    
        82.97       82.24       81.52       80.80       80.10       79.41       78.72       78.04       77.37       76.70    
        76.03       75.37       74.70       74.04       73.37       72.70       72.03       71.36       70.68       70.00    
   9  -1000.0       103.2       103.0       102.9       102.7       102.4       102.1       101.7       101.2       100.6    
        99.99       99.29       98.52       97.67       96.74       95.73       94.74       93.77       92.82       91.89    
        90.96       90.06       89.19       88.33       87.50       86.68       85.88       85.10       84.33       83.58    
        82.84       82.12       81.40       80.70       80.00       79.31       78.63       77.96       77.29       76.63    
        75.97       75.31       74.66       74.00       73.34       72.68       72.01       71.35       70.67       70.00    
  10  -1000.0       103.0       102.9       102.8       102.5       102.3       101.9       101.5       101.0       100.4    
        99.80       99.10       98.32       97.46       96.53       95.51       94.52       93.55       92.60       91.68    
        90.75       89.86       88.98       88.13       87.31       86.50       85.71       84.93       84.17       83.43    
        82.70       81.98       81.27       80.57       79.88       79.20       78.53       77.87       77.21       76.55    
        75.90       75.25       74.61       73.96       73.31       72.65       71.99       71.33       70.67       70.00    
  11  -1000.0       102.8       102.7       102.6       102.4       102.1       101.7       101.3       100.8       100.2    
        99.58       98.87       98.08       97.22       96.28       95.27       94.27       93.30       92.35       91.43    
        90.51       89.62       88.75       87.91       87.09       86.29       85.51       84.74       83.99       83.25    
        82.53       81.82       81.12       80.43       79.75       79.08       78.42       77.76       77.11       76.47    
        75.83       75.19       74.55       73.91       73.27       72.62       71.97       71.32       70.66       70.00    
  12  -1000.0       102.6       102.5       102.4       102.1       101.9       101.5       101.1       100.5       99.97    
        99.32       98.60       97.81       96.95       96.00       94.98       93.99       93.02       92.07       91.15    
        90.23       89.35       88.49       87.66       86.85       86.06       85.28       84.53       83.79       83.06    
        82.35       81.65       80.96       80.28       79.61       78.95       78.29       77.65       77.01       76.37    
        75.74       75.12       74.49       73.86       73.23       72.59       71.95       71.30       70.65       70.00    
  13  -1000.0       102.4       102.3       102.1       101.9       101.6       101.2       100.8       100.3       99.69    
        99.03       98.31       97.51       96.63       95.69       94.66       93.67       92.70       91.75       90.84    
        89.93       89.05       88.20       87.38       86.58       85.80       85.04       84.29       83.56       82.85    
        82.15       81.46       80.78       80.11       79.45       78.80       78.16       77.52       76.89       76.27    
        75.66       75.04       74.42       73.81       73.19       72.56       71.93       71.29       70.65       70.00    
  14  -1000.0       102.1       102.0       101.9       101.6       101.3       101.0       100.5       99.97       99.37    
        98.71       97.97       97.16       96.28       95.33       94.30       93.31       92.34       91.40       90.49    
        89.59       88.72       87.88       87.07       86.28       85.52       84.77       84.04       83.32       82.62    
        81.93       81.25       80.59       79.93       79.28       78.64       78.01       77.39       76.77       76.16    
        75.56       74.96       74.36       73.75       73.14       72.53       71.91       71.28       70.64       70.00    
  15  -1000.0       101.9       101.8       101.6       101.4       101.0       100.6       100.2       99.63       99.02    
        98.34       97.59       96.78       95.89       94.93       93.90       92.91       91.94       91.00       90.10    
        89.21       88.36       87.53       86.74       85.96       85.21       84.48       83.76       83.06       82.38    
        81.70       81.04       80.38       79.74       79.10       78.47       77.85       77.24       76.64       76.05    
        75.46       74.87       74.29       73.70       73.10       72.50       71.89       71.26       70.63       70.00    
  16  -1000.0       101.6       101.5       101.3       101.1       100.7       100.3       99.82       99.26       98.63    
        97.94       97.18       96.35       95.46       94.49       93.46       92.46       91.50       90.57       89.67    
        88.80       87.96       87.15       86.37       85.62       84.88       84.17       83.47       82.79       82.12    
        81.46       80.81       80.17       79.53       78.91       78.29       77.68       77.09       76.50       75.92    
        75.35       74.79       74.22       73.65       73.07       72.48       71.87       71.26       70.63       70.00    
  17  -1000.0       101.3       101.2       101.0       100.7       100.4       99.94       99.43       98.85       98.20    
        97.49       96.72       95.88       94.97       94.00       92.97       91.97       91.01       90.09       89.20    
        88.34       87.52       86.74       85.98       85.25       84.53       83.84       83.16       82.50       81.84    
        81.20       80.57       79.94       79.32       78.71       78.11       77.51       76.93       76.35       75.80    
        75.25       74.70       74.16       73.60       73.04       72.46       71.86       71.25       70.63       70.00    
  18  -1000.0       101.0       100.9       100.7       100.4      100.00       99.54       99.00       98.40       97.73    
        97.00       96.20       95.35       94.44       93.46       92.42       91.42       90.47       89.56       88.69    
        87.85       87.05       86.29       85.56       84.85       84.16       83.49       82.84       82.19       81.56    
        80.94       80.33       79.72       79.11       78.51       77.92       77.33       76.76       76.20       75.67    
        75.14       74.62       74.10       73.57       73.02       72.45       71.86       71.26       70.63       70.00    
  19  -1000.0       100.7       100.6       100.3       100.0       99.60       99.11       98.54       97.91       97.21    
        96.45       95.64       94.77       93.84       92.86       91.82       90.82       89.87       88.97       88.12    
        87.31       86.55       85.82       85.12       84.44       83.78       83.13       82.50       81.89       81.28    
        80.68       80.08       79.49       78.90       78.31       77.73       77.15       76.59       76.05       75.53    
        75.04       74.55       74.05       73.54       73.01       72.46       71.88       71.27       70.64       70.00    
  20  -1000.0       100.4       100.3       100.0       99.64       99.18       98.65       98.04       97.37       96.64    
        95.85       95.02       94.13       93.19       92.20       91.15       90.15       89.21       88.32       87.49    
        86.72       86.00       85.32       84.65       84.01       83.38       82.77       82.17       81.58       80.99    
        80.42       79.84       79.27       78.70       78.12       77.55       76.98       76.42       75.90       75.41    
        74.95       74.49       74.02       73.54       73.02       72.48       71.91       71.30       70.66       70.00    
  21  -1000.0       100.1       99.97       99.67       99.26       98.74       98.15       97.49       96.77       96.01    
        95.19       94.33       93.42       92.46       91.46       90.41       89.41       88.48       87.61       86.80    
        86.09       85.44       84.80       84.19       83.58       82.99       82.41       81.84       81.28       80.72    
        80.17       79.62       79.07       78.51       77.95       77.39       76.83       76.28       75.75       75.30    
        74.88       74.46       74.02       73.55       73.06       72.53       71.96       71.34       70.68       70.00    
  22  -1000.0       99.92       99.72       99.36       98.86       98.28       97.61       96.89       96.12       95.31    
        94.45       93.56       92.63       91.66       90.65       89.59       88.59       87.66       86.80       86.03    
        85.42       84.86       84.29       83.73       83.17       82.61       82.07       81.53       81.00       80.47    
        79.95       79.42       78.89       78.36       77.82       77.27       76.72       76.17       75.65       75.24    
        74.85       74.45       74.04       73.59       73.12       72.60       72.03       71.40       70.72       70.00    
  23  -1000.0       99.82       99.55       99.07       98.47       97.78       97.03       96.23       95.40       94.53    
        93.63       92.71       91.75       90.77       89.75       88.70       87.70       86.76       85.91       85.16    
        84.73       84.30       83.83       83.32       82.80       82.28       81.77       81.26       80.76       80.26    
        79.76       79.26       78.75       78.24       77.72       77.20       76.68       76.16       75.68       75.27    
        74.88       74.49       74.09       73.66       73.19       72.68       72.12       71.49       70.78       70.00    
  24  -1000.0       99.91       99.47       98.82       98.06       97.24       96.39       95.50       94.59       93.66    
        92.72       91.76       90.78       89.79       88.78       87.72       86.72       85.77       84.89       84.15    
        84.07       83.84       83.47       83.02       82.53       82.04       81.56       81.07       80.59       80.12    
        79.64       79.15       78.67       78.18       77.68       77.18       76.69       76.21       75.75       75.33    
        74.94       74.55       74.15       73.73       73.27       72.77       72.21       71.58       70.84       70.00    
  25  -1000.0       100.3       99.50       98.56       97.60       96.63       95.65       94.67       93.68       92.69    
        91.70       90.71       89.71       88.71       87.70       86.69       85.68       84.69       83.71       82.81    
        83.62       83.62       83.32       82.89       82.42       81.94       81.47       81.00       80.54       80.07    
        79.60       79.13       78.65       78.18       77.70       77.22       76.74       76.28       75.84       75.42    
        75.02       74.62       74.21       73.79       73.33       72.83       72.28       71.65       70.91       70.00    
  26  -1000.0       99.95       99.51       98.86       98.11       97.29       96.43       95.54       94.63       93.71    
        92.76       91.80       90.83       89.83       88.81       87.76       86.76       85.81       84.93       84.19    
        84.11       83.88       83.51       83.06       82.57       82.08       81.60       81.12       80.64       80.17    
        79.69       79.22       78.74       78.27       77.79       77.32       76.85       76.39       75.94       75.51    
        75.09       74.67       74.24       73.80       73.33       72.81       72.24       71.60       70.85       70.00    
  27  -1000.0       99.91       99.63       99.16       98.56       97.88       97.13       96.33       95.49       94.62    
        93.72       92.80       91.84       90.86       89.84       88.78       87.78       86.85       85.99       85.25    
        84.82       84.38       83.91       83.40       82.88       82.37       81.86       81.35       80.86       80.37    
        79.88       79.39       78.90       78.42       77.93       77.45       76.98       76.51       76.05       75.60    
        75.16       74.72       74.26       73.79       73.30       72.76       72.17       71.52       70.79       70.00    
  28  -1000.0       100.0       99.85       99.49       99.00       98.42       97.76       97.03       96.26       95.45    
        94.59       93.70       92.77       91.79       90.78       89.72       88.72       87.79       86.93       86.16    
        85.55       84.98       84.42       83.85       83.29       82.74       82.19       81.66       81.14       80.62    
        80.11       79.61       79.10       78.60       78.11       77.61       77.12       76.64       76.17       75.70    
        75.23       74.76       74.28       73.78       73.26       72.71       72.11       71.45       70.75       70.00    
  29  -1000.0       100.3       100.1       99.84       99.43       98.92       98.33       97.68       96.96       96.19    
        95.37       94.51       93.60       92.64       91.64       90.58       89.59       88.65       87.78       86.97    
        86.26       85.60       84.96       84.35       83.74       83.15       82.57       82.01       81.46       80.92    
        80.38       79.85       79.33       78.81       78.30       77.79       77.28       76.78       76.29       75.80    
        75.30       74.81       74.30       73.78       73.24       72.66       72.05       71.40       70.71       70.00    
  30  -1000.0       100.6       100.4       100.2       99.85       99.40       98.87       98.26       97.59       96.86    
        96.08       95.24       94.35       93.41       92.42       91.36       90.37       89.42       88.54       87.70    
        86.93       86.21       85.52       84.85       84.21       83.58       82.97       82.38       81.80       81.23    
        80.67       80.12       79.57       79.03       78.50       77.97       77.45       76.93       76.41       75.90    
        75.38       74.86       74.33       73.79       73.22       72.63       72.02       71.37       70.69       70.00    
  31  -1000.0       100.9       100.8       100.6       100.3       99.85       99.36       98.80       98.17       97.47    
        96.72       95.90       95.03       94.10       93.12       92.07       91.07       90.12       89.22       88.37    
        87.55       86.78       86.05       85.35       84.67       84.01       83.37       82.75       82.14       81.54    
        80.96       80.38       79.82       79.26       78.70       78.16       77.61       77.07       76.54       76.00    
        75.46       74.92       74.37       73.80       73.22       72.62       71.99       71.35       70.68       70.00    
  32  -1000.0       101.2       101.1       100.9       100.6       100.3       99.81       99.29       98.69       98.02    
        97.29       96.50       95.65       94.73       93.75       92.71       91.71       90.75       89.84       88.97    
        88.12       87.32       86.56       85.82       85.11       84.43       83.76       83.11       82.48       81.86    
        81.25       80.65       80.06       79.48       78.91       78.34       77.78       77.22       76.66       76.10    
        75.55       74.98       74.41       73.83       73.23       72.62       71.99       71.34       70.67       70.00    
  33  -1000.0       101.6       101.5       101.3       101.0       100.7       100.2       99.74       99.16       98.52    
        97.81       97.04       96.20       95.29       94.32       93.28       92.28       91.32       90.40       89.52    
        88.65       87.83       87.03       86.27       85.54       84.82       84.13       83.46       82.80       82.16    
        81.53       80.91       80.30       79.70       79.11       78.52       77.94       77.36       76.79       76.21    
        75.63       75.05       74.46       73.86       73.25       72.63       71.99       71.33       70.67       70.00    
  34  -1000.0       101.9       101.8       101.6       101.4       101.0       100.6       100.2       99.60       98.97    
        98.28       97.52       96.70       95.80       94.84       93.80       92.80       91.84       90.91       90.02    
        89.13       88.29       87.48       86.69       85.94       85.20       84.49       83.79       83.11       82.45    
        81.80       81.16       80.54       79.92       79.31       78.70       78.10       77.50       76.91       76.31    
        75.72       75.12       74.51       73.90       73.28       72.64       72.00       71.34       70.67       70.00    
  35  -1000.0       102.2       102.1       102.0       101.7       101.4       101.0       100.5       99.99       99.39    
        98.71       97.96       97.15       96.26       95.30       94.27       93.27       92.31       91.37       90.47    
        89.57       88.71       87.88       87.08       86.31       85.55       84.82       84.11       83.41       82.73    
        82.06       81.40       80.76       80.12       79.49       78.87       78.25       77.64       77.03       76.42    
        75.80       75.19       74.57       73.94       73.31       72.66       72.01       71.35       70.68       70.00    
  36  -1000.0       102.5       102.4       102.3       102.0       101.7       101.3       100.9       100.4       99.76    
        99.09       98.36       97.55       96.67       95.72       94.69       93.69       92.72       91.78       90.87    
        89.97       89.10       88.26       87.44       86.65       85.88       85.13       84.40       83.69       82.99    
        82.30       81.63       80.97       80.32       79.67       79.03       78.40       77.77       77.14       76.52    
        75.89       75.26       74.63       73.99       73.34       72.69       72.03       71.36       70.68       70.00    
  37  -1000.0       102.8       102.7       102.5       102.3       102.0       101.6       101.2       100.7       100.1    
        99.44       98.71       97.92       97.04       96.10       95.07       94.07       93.10       92.16       91.24    
        90.33       89.45       88.60       87.77       86.96       86.18       85.42       84.67       83.94       83.23    
        82.53       81.84       81.17       80.50       79.84       79.19       78.54       77.89       77.25       76.61    
        75.97       75.33       74.68       74.03       73.38       72.71       72.04       71.37       70.69       70.00    
  38  -1000.0       103.0       102.9       102.8       102.6       102.3       101.9       101.5       101.0       100.4    
        99.75       99.04       98.24       97.38       96.43       95.41       94.42       93.44       92.50       91.57    
        90.65       89.77       88.90       88.07       87.25       86.46       85.68       84.92       84.18       83.45    
        82.74       82.04       81.35       80.67       79.99       79.33       78.67       78.01       77.36       76.70    
        76.05       75.40       74.74       74.08       73.41       72.74       72.06       71.38       70.69       70.00    
  39  -1000.0       103.2       103.2       103.0       102.8       102.5       102.2       101.7       101.2       100.7    
        100.0       99.32       98.53       97.67       96.73       95.72       94.72       93.75       92.80       91.87    
        90.95       90.05       89.18       88.34       87.51       86.71       85.92       85.15       84.40       83.66    
        82.93       82.22       81.52       80.83       80.14       79.46       78.79       78.12       77.46       76.79    
        76.13       75.46       74.80       74.13       73.45       72.77       72.08       71.39       70.70       70.00    
  40  -1000.0       103.4       103.4       103.2       103.0       102.7       102.4       102.0       101.5       100.9    
        100.3       99.57       98.79       97.94       97.00       95.99       94.99       94.02       93.07       92.14    
        91.21       90.31       89.43       88.58       87.75       86.93       86.14       85.36       84.60       83.85    
        83.11       82.39       81.67       80.97       80.27       79.58       78.90       78.22       77.55       76.87    
        76.20       75.52       74.85       74.17       73.49       72.80       72.10       71.41       70.70       70.00    
  41  -1000.0       103.6       103.5       103.4       103.2       102.9       102.6       102.2       101.7       101.1    
        100.5       99.79       99.02       98.17       97.24       96.22       95.23       94.26       93.31       92.37    
        91.44       90.54       89.66       88.80       87.96       87.14       86.33       85.55       84.77       84.01    
        83.27       82.54       81.81       81.10       80.39       79.70       79.00       78.31       77.63       76.95    
        76.26       75.58       74.90       74.21       73.52       72.82       72.12       71.42       70.71       70.00    
  42  -1000.0       103.8       103.7       103.6       103.4       103.1       102.7       102.3       101.8       101.3    
        100.7       99.98       99.21       98.37       97.44       96.43       95.44       94.47       93.51       92.58    
        91.65       90.74       89.85       88.99       88.14       87.31       86.50       85.71       84.93       84.16    
        83.41       82.67       81.94       81.22       80.50       79.79       79.09       78.40       77.70       77.01    
        76.32       75.63       74.94       74.25       73.55       72.85       72.14       71.43       70.72       70.00    
  43  -1000.0       104.0       103.9       103.7       103.5       103.2       102.9       102.5       102.0       101.4    
        100.8       100.1       99.38       98.53       97.61       96.60       95.62       94.65       93.69       92.76    
        91.82       90.91       90.02       89.15       88.30       87.47       86.65       85.85       85.07       84.29    
        83.53       82.79       82.05       81.32       80.60       79.88       79.17       78.47       77.77       77.07    
        76.37       75.68       74.98       74.28       73.58       72.87       72.16       71.44       70.72       70.00    
  44  -1000.0     -1000.0       104.1       103.9       103.6       103.3       103.0       102.6       102.1       101.6    
        101.0       100.3       99.51       98.67       97.76       96.75       95.77       94.80       93.84       92.91    
        91.97       91.06       90.17       89.29       88.44       87.60       86.78       85.98       85.18       84.41    
        83.64       82.89       82.14       81.41       80.68       79.96       79.24       78.53       77.83       77.12    
        76.42       75.72       75.01       74.31       73.60       72.89       72.17       71.45       70.73       70.00    
  45  -1000.0     -1000.0     -1000.0       104.0       103.7       103.4       103.0       102.6       102.2       101.6    
        101.0       100.4       99.62       98.79       97.87       96.87       95.89       94.92       93.97       93.03    
        92.09       91.18       90.29       89.41       88.55       87.71       86.89       86.08       85.28       84.50    
        83.73       82.97       82.22       81.48       80.75       80.02       79.30       78.59       77.87       77.16    
        76.46       75.75       75.04       74.33       73.62       72.90       72.18       71.46       70.73       70.00    
  46  -1000.0     -1000.0     -1000.0     -1000.0       103.8       103.5       103.0       102.7       102.2       101.7    
        101.1       100.4       99.70       98.87       97.96       96.97       95.98       95.02       94.07       93.13    
        92.19       91.28       90.38       89.50       88.64       87.80       86.97       86.16       85.36       84.57    
        83.80       83.04       82.28       81.54       80.80       80.07       79.35       78.63       77.91       77.20    
        76.49       75.78       75.06       74.35       73.64       72.92       72.19       71.47       70.73       70.00    
  47  -1000.0     -1000.0     -1000.0     -1000.0     -1000.0       103.5       103.1       102.7       102.2       101.7    
        101.1       100.5       99.76       98.94       98.03       97.04       96.06       95.09       94.14       93.20    
        92.26       91.35       90.45       89.57       88.71       87.87       87.04       86.22       85.42       84.63    
        83.85       83.09       82.33       81.58       80.84       80.11       79.38       78.66       77.94       77.23    
        76.51       75.80       75.08       74.37       73.65       72.93       72.20       71.47       70.74       70.00    
  48  -1000.0     -1000.0     -1000.0     -1000.0     -1000.0     -1000.0       103.2       102.8       102.2       101.7    
        101.2       100.5       99.79       98.98       98.07       97.08       96.10       95.14       94.19       93.25    
        92.31       91.40       90.50       89.62       88.76       87.91       87.08       86.26       85.46       84.67    
        83.89       83.12       82.36       81.61       80.87       80.13       79.41       78.68       77.96       77.24    
        76.53       75.81       75.09       74.38       73.66       72.93       72.21       71.47       70.74       70.00    
  49  -1000.0     -1000.0     -1000.0     -1000.0     -1000.0     -1000.0     -1000.0       102.8       102.3       101.7    
        101.2       100.5       99.81       98.99       98.09       97.10       96.13       95.16       94.21       93.28    
        92.34       91.42       90.52       89.64       88.78       87.93       87.10       86.28       85.48       84.69    
        83.91       83.14       82.38       81.63       80.88       80.15       79.42       78.69       77.97       77.25    
        76.53       75.82       75.10       74.38       73.66       72.94       72.21       71.48       70.74       70.00    
  50  -1000.0     -1000.0     -1000.0     -1000.0     -1000.0     -1000.0     -1000.0     -1000.0     -1000.0     -1000.0    
      -1000.0     -1000.0     -1000.0     -1000.0     -1000.0     -1000.0     -1000.0     -1000.0     -1000.0     -1000.0    
      -1000.0     -1000.0     -1000.0     -1000.0     -1000.0     -1000.0     -1000.0     -1000.0     -1000.0     -1000.0    
      -1000.0     -1000.0     -1000.0     -1000.0     -1000.0     -1000.0     -1000.0     -1000.0     -1000.0     -1000.0    
      -1000.0     -1000.0     -1000.0     -1000.0     -1000.0     -1000.0     -1000.0     -1000.0     -1000.0       70.00    
1
              HEAD IN LAYER   3 AT END OF TIME STEP   1 IN STRESS PERIOD    1
  ---------------------------------------------------------------------------

            1           2           3           4           5           6           7           8           9          10
           11          12          13          14          15          16          17          18          19          20
           21          22          23          24          25          26          27          28          29          30
           31          32          33          34          35          36          37          38          39          40
[...]
        85.04       84.88       84.65       84.33       83.93       83.48       82.98       82.44       81.86       81.26    
        80.63       79.96       79.27       78.53       77.74       76.89       75.94       74.87       73.79       73.72    
        73.64       73.44       73.14       72.78       72.38       71.94       71.47       70.99       70.50       70.00    
  24  -1000.0       99.91       99.47       98.82       98.06       97.24       96.39       95.50       94.59       93.66    
        92.72       91.76       90.78       89.79       88.78       87.72       86.72       85.77       84.89       84.15    
        84.43       84.52       84.42       84.17       83.82       83.40       82.92       82.39       81.83       81.24    
        80.62       79.96       79.28       78.57       77.82       77.03       76.20       75.36       74.62       74.21    
        73.90       73.59       73.23       72.84       72.41       71.96       71.49       71.00       70.50       70.00    
  25  -1000.0       100.3       99.50       98.56       97.60       96.63       95.66       94.67       93.69       92.70    
        91.70       90.71       89.71       88.71       87.70       86.69       85.68       84.69       83.71       82.81    
        84.02       84.36       84.34       84.13       83.80       83.39       82.91       82.40       81.84       81.26    
        80.64       80.01       79.34       78.65       77.94       77.20       76.46       75.74       75.10       74.59    
        74.17       73.76       73.35       72.92       72.47       72.00       71.52       71.02       70.51       70.00    
  26  -1000.0       99.95       99.51       98.86       98.11       97.29       96.43       95.54       94.63       93.71    
        92.76       91.80       90.83       89.83       88.81       87.76       86.76       85.81       84.93       84.19    
        84.47       84.56       84.46       84.22       83.87       83.45       82.97       82.45       81.90       81.32    
        80.71       80.08       79.43       78.76       78.08       77.39       76.70       76.04       75.43       74.89    
        74.40       73.93       73.48       73.01       72.54       72.05       71.55       71.04       70.52       70.00    
  27  -1000.0       99.91       99.63       99.16       98.56       97.88       97.13       96.33       95.49       94.62    
        93.72       92.80       91.84       90.86       89.84       88.78       87.78       86.85       85.99       85.25    
        85.12       84.97       84.74       84.42       84.03       83.58       83.09       82.56       82.00       81.41    
        80.81       80.18       79.54       78.89       78.23       77.57       76.92       76.28       75.68       75.12    
        74.60       74.10       73.60       73.11       72.61       72.10       71.58       71.06       70.53       70.00    
  28  -1000.0       100.0       99.85       99.49       99.00       98.42       97.76       97.03       96.26       95.45    
        94.59       93.70       92.77       91.79       90.78       89.72       88.72       87.79       86.93       86.16    
        85.80       85.46       85.10       84.70       84.25       83.77       83.25       82.70       82.13       81.54    
        80.93       80.31       79.68       79.04       78.39       77.75       77.11       76.49       75.89       75.32    
        74.77       74.24       73.72       73.20       72.68       72.15       71.62       71.08       70.54       70.00    
  29  -1000.0       100.3       100.1       99.84       99.43       98.92       98.33       97.68       96.96       96.19    
        95.37       94.51       93.60       92.64       91.64       90.58       89.59       88.65       87.78       86.97    
        86.46       85.99       85.52       85.03       84.53       84.00       83.45       82.88       82.29       81.69    
        81.08       80.46       79.83       79.19       78.55       77.92       77.29       76.67       76.07       75.49    
        74.93       74.37       73.83       73.29       72.75       72.20       71.66       71.11       70.55       70.00    
  30  -1000.0       100.6       100.4       100.2       99.85       99.40       98.87       98.26       97.59       96.86    
        96.08       95.24       94.35       93.41       92.42       91.36       90.37       89.42       88.54       87.70    
        87.08       86.51       85.95       85.39       84.83       84.26       83.68       83.09       82.48       81.87    
        81.24       80.62       79.98       79.35       78.71       78.08       77.45       76.84       76.23       75.64    
        75.06       74.49       73.93       73.37       72.81       72.26       71.69       71.13       70.57       70.00    
  31  -1000.0       100.9       100.8       100.6       100.3       99.85       99.36       98.80       98.17       97.47    
        96.72       95.90       95.03       94.10       93.12       92.07       91.07       90.12       89.22       88.37    
        87.67       87.01       86.38       85.77       85.16       84.54       83.93       83.31       82.68       82.06    
        81.42       80.78       80.15       79.51       78.87       78.24       77.61       76.99       76.38       75.78    
        75.19       74.60       74.03       73.45       72.88       72.30       71.73       71.15       70.58       70.00    
  32  -1000.0       101.2       101.1       100.9       100.6       100.3       99.81       99.29       98.69       98.02    
        97.29       96.50       95.65       94.73       93.75       92.71       91.71       90.75       89.84       88.97    
        88.21       87.49       86.81       86.14       85.48       84.84       84.19       83.54       82.90       82.25    
        81.61       80.96       80.31       79.67       79.03       78.39       77.76       77.13       76.51       75.91    
        75.30       74.71       74.11       73.53       72.94       72.35       71.76       71.18       70.59       70.00    
  33  -1000.0       101.6       101.5       101.3       101.0       100.7       100.2       99.74       99.16       98.52    
        97.81       97.04       96.20       95.29       94.32       93.28       92.28       91.32       90.40       89.52    
        88.71       87.95       87.21       86.50       85.81       85.13       84.45       83.78       83.12       82.45    
        81.79       81.14       80.48       79.83       79.18       78.54       77.90       77.27       76.64       76.02    
        75.41       74.80       74.20       73.59       73.00       72.40       71.80       71.20       70.60       70.00    
  34  -1000.0       101.9       101.8       101.6       101.4       101.0       100.6       100.2       99.60       98.97    
        98.28       97.52       96.70       95.80       94.84       93.80       92.80       91.84       90.91       90.02    
        89.17       88.37       87.60       86.85       86.13       85.41       84.71       84.02       83.34       82.66    
        81.98       81.31       80.65       79.98       79.33       78.68       78.03       77.39       76.76       76.13    
        75.51       74.89       74.27       73.66       73.05       72.44       71.83       71.22       70.61       70.00    
  35  -1000.0       102.2       102.1       102.0       101.7       101.4       101.0       100.5       99.99       99.39    
        98.71       97.96       97.15       96.26       95.30       94.27       93.27       92.31       91.37       90.47    
        89.60       88.76       87.96       87.18       86.43       85.69       84.97       84.25       83.55       82.86    
        82.17       81.48       80.81       80.14       79.47       78.81       78.16       77.51       76.87       76.23    
        75.60       74.97       74.34       73.72       73.10       72.48       71.86       71.24       70.62       70.00    
  36  -1000.0       102.5       102.4       102.3       102.0       101.7       101.3       100.9       100.4       99.76    
        99.09       98.36       97.55       96.67       95.72       94.69       93.69       92.72       91.78       90.87    
        89.98       89.12       88.30       87.50       86.72       85.96       85.21       84.48       83.76       83.05    
        82.35       81.65       80.97       80.29       79.61       78.94       78.28       77.62       76.97       76.33    
        75.68       75.05       74.41       73.78       73.15       72.52       71.89       71.26       70.63       70.00    
  37  -1000.0       102.8       102.7       102.5       102.3       102.0       101.6       101.2       100.7       100.1    
        99.44       98.71       97.92       97.04       96.10       95.07       94.07       93.10       92.16       91.24    
        90.33       89.45       88.61       87.79       86.99       86.21       85.44       84.70       83.96       83.24    
        82.52       81.81       81.12       80.43       79.74       79.07       78.40       77.73       77.07       76.42    
        75.76       75.12       74.47       73.83       73.19       72.55       71.91       71.28       70.64       70.00    
  38  -1000.0       103.0       102.9       102.8       102.6       102.3       101.9       101.5       101.0       100.4    
        99.75       99.04       98.24       97.38       96.43       95.41       94.42       93.44       92.50       91.57    
        90.65       89.76       88.89       88.05       87.24       86.44       85.66       84.90       84.15       83.41    
        82.68       81.97       81.26       80.56       79.87       79.18       78.50       77.83       77.16       76.50    
        75.84       75.18       74.53       73.88       73.23       72.58       71.94       71.29       70.65       70.00    
  39  -1000.0       103.2       103.2       103.0       102.8       102.5       102.2       101.7       101.2       100.7    
        100.0       99.32       98.53       97.67       96.73       95.72       94.72       93.75       92.80       91.87    
        90.94       90.03       89.15       88.30       87.47       86.66       85.86       85.09       84.32       83.58    
        82.84       82.11       81.39       80.68       79.98       79.29       78.60       77.92       77.25       76.57    
        75.91       75.24       74.58       73.93       73.27       72.61       71.96       71.31       70.65       70.00    
  40  -1000.0       103.4       103.4       103.2       103.0       102.7       102.4       102.0       101.5       100.9    
        100.3       99.57       98.79       97.94       97.00       95.99       94.99       94.02       93.07       92.14    
        91.19       90.28       89.39       88.52       87.68       86.85       86.05       85.26       84.49       83.73    
        82.98       82.24       81.52       80.80       80.09       79.39       78.70       78.01       77.32       76.64    
        75.97       75.30       74.63       73.97       73.30       72.64       71.98       71.32       70.66       70.00    
  41  -1000.0       103.6       103.5       103.4       103.2       102.9       102.6       102.2       101.7       101.1    
        100.5       99.79       99.02       98.17       97.24       96.22       95.23       94.26       93.31       92.37    
        91.42       90.49       89.60       88.72       87.87       87.03       86.22       85.42       84.64       83.87    
        83.11       82.37       81.63       80.91       80.19       79.48       78.78       78.08       77.39       76.71    
        76.03       75.35       74.68       74.00       73.33       72.67       72.00       71.33       70.67       70.00    
  42  -1000.0     -1000.0       103.7       103.6       103.4       103.1       102.7       102.3       101.8       101.3    
        100.7       99.98       99.21       98.37       97.44       96.43       95.44       94.47       93.51       92.58    
        91.62       90.69       89.78       88.90       88.03       87.19       86.37       85.56       84.77       83.99    
        83.23       82.47       81.73       81.00       80.28       79.56       78.85       78.15       77.46       76.77    
        76.08       75.40       74.72       74.04       73.36       72.69       72.02       71.34       70.67       70.00    
  43  -1000.0     -1000.0     -1000.0       103.7       103.5       103.2       102.9       102.5       102.0       101.4    
        100.8       100.1       99.38       98.53       97.61       96.60       95.62       94.65       93.69       92.76    
        91.79       90.85       89.94       89.05       88.18       87.33       86.50       85.68       84.89       84.10    
        83.33       82.57       81.82       81.08       80.36       79.63       78.92       78.21       77.51       76.82    
        76.12       75.44       74.75       74.07       73.39       72.71       72.03       71.35       70.68       70.00    
  44  -1000.0     -1000.0     -1000.0     -1000.0       103.6       103.3       103.0       102.6       102.1       101.6    
        101.0       100.3       99.51       98.67       97.76       96.75       95.77       94.80       93.84       92.91    
        91.94       91.00       90.08       89.18       88.31       87.45       86.61       85.79       84.99       84.20    
        83.42       82.65       81.90       81.16       80.42       79.70       78.98       78.27       77.56       76.86    
        76.16       75.47       74.78       74.09       73.41       72.73       72.04       71.36       70.68       70.00    
  45  -1000.0     -1000.0     -1000.0     -1000.0     -1000.0       103.4       103.0       102.6       102.2       101.6    
        101.0       100.4       99.62       98.79       97.87       96.87       95.89       94.92       93.97       93.03    
        92.06       91.11       90.19       89.29       88.41       87.55       86.71       85.88       85.07       84.28    
        83.49       82.72       81.97       81.22       80.48       79.75       79.03       78.31       77.60       76.90    
        76.20       75.50       74.81       74.12       73.43       72.74       72.05       71.37       70.68       70.00    
  46  -1000.0     -1000.0     -1000.0     -1000.0     -1000.0     -1000.0       103.0       102.7       102.2       101.7    
        101.1       100.4       99.70       98.87       97.96       96.97       95.98       95.02       94.07       93.13    
        92.16       91.21       90.28       89.38       88.49       87.63       86.78       85.95       85.14       84.34    
        83.55       82.78       82.02       81.27       80.53       79.79       79.07       78.35       77.63       76.93    
        76.22       75.52       74.83       74.13       73.44       72.75       72.06       71.37       70.69       70.00    
  47  -1000.0     -1000.0     -1000.0     -1000.0     -1000.0     -1000.0     -1000.0       102.7       102.2       101.7    
        101.1       100.5       99.76       98.94       98.03       97.04       96.06       95.09       94.14       93.20    
        92.23       91.28       90.35       89.44       88.56       87.69       86.84       86.01       85.19       84.39    
        83.60       82.82       82.06       81.30       80.56       79.82       79.10       78.37       77.66       76.95    
        76.24       75.54       74.84       74.15       73.45       72.76       72.07       71.38       70.69       70.00    
  48  -1000.0     -1000.0     -1000.0     -1000.0     -1000.0     -1000.0     -1000.0     -1000.0       102.2       101.7    
        101.2       100.5       99.79       98.98       98.07       97.08       96.10       95.14       94.19       93.25    
        92.28       91.32       90.39       89.48       88.60       87.73       86.88       86.04       85.22       84.42    
        83.63       82.85       82.09       81.33       80.58       79.85       79.11       78.39       77.67       76.96    
        76.26       75.55       74.85       74.15       73.46       72.77       72.07       71.38       70.69       70.00    
  49  -1000.0     -1000.0     -1000.0     -1000.0     -1000.0     -1000.0     -1000.0     -1000.0     -1000.0       101.7    
        101.2       100.5       99.81       98.99       98.09       97.10       96.13       95.16       94.21       93.28    
        92.30       91.35       90.42       89.51       88.62       87.75       86.90       86.06       85.24       84.44    
        83.64       82.87       82.10       81.34       80.59       79.86       79.12       78.40       77.68       76.97    
        76.26       75.56       74.86       74.16       73.46       72.77       72.08       71.38       70.69       70.00    
  50  -1000.0     -1000.0     -1000.0     -1000.0     -1000.0     -1000.0     -1000.0     -1000.0     -1000.0     -1000.0    
      -1000.0     -1000.0     -1000.0     -1000.0     -1000.0     -1000.0     -1000.0     -1000.0     -1000.0     -1000.0    
      -1000.0     -1000.0     -1000.0     -1000.0     -1000.0     -1000.0     -1000.0     -1000.0     -1000.0     -1000.0    
      -1000.0     -1000.0     -1000.0     -1000.0     -1000.0     -1000.0     -1000.0     -1000.0     -1000.0     -1000.0    
      -1000.0     -1000.0     -1000.0     -1000.0     -1000.0     -1000.0     -1000.0     -1000.0     -1000.0       70.00    

 HEAD WILL BE SAVED ON UNIT   51 AT END OF TIME STEP    1, STRESS PERIOD    1

 DRAWDOWN WILL BE SAVED ON UNIT   52 AT END OF TIME STEP    1, STRESS PERIOD    1
1
  VOLUMETRIC BUDGET FOR ENTIRE MODEL AT END OF TIME STEP    1, STRESS PERIOD   1
  ------------------------------------------------------------------------------

     CUMULATIVE VOLUMES      L**3       RATES FOR THIS TIME STEP      L**3/T
     ------------------                 ------------------------

           IN:                                      IN:
           ---                                      ---
             STORAGE =           0.0000               STORAGE =           0.0000
       CONSTANT HEAD =           0.0000         CONSTANT HEAD =           0.0000
               WELLS =         375.0000                 WELLS =         375.0000
       RIVER LEAKAGE =        3489.0061         RIVER LEAKAGE =        3489.0061
                  ET =           0.0000                    ET =           0.0000
            RECHARGE =       32599.9980              RECHARGE =       32599.9980

            TOTAL IN =       36464.0039              TOTAL IN =       36464.0039

          OUT:                                     OUT:
          ----                                     ----
             STORAGE =           0.0000               STORAGE =           0.0000
       CONSTANT HEAD =       12904.5361         CONSTANT HEAD =       12904.5361
               WELLS =        1500.0000                 WELLS =        1500.0000
       RIVER LEAKAGE =       20840.4668         RIVER LEAKAGE =       20840.4668
                  ET =        1218.9774                    ET =        1218.9774
            RECHARGE =           0.0000              RECHARGE =           0.0000

           TOTAL OUT =       36463.9805             TOTAL OUT =       36463.9805

            IN - OUT =       2.3438E-02              IN - OUT =       2.3438E-02

 PERCENT DISCREPANCY =           0.00     PERCENT DISCREPANCY =           0.00






         TIME SUMMARY AT END OF TIME STEP    1 IN STRESS PERIOD    1
                    SECONDS     MINUTES      HOURS       DAYS        YEARS
                    -----------------------------------------------------------
   TIME STEP LENGTH  86400.      1440.0      24.000      1.0000     2.73785E-03
 STRESS PERIOD TIME  86400.      1440.0      24.000      1.0000     2.73785E-03
         TOTAL TIME  86400.      1440.0      24.000      1.0000     2.73785E-03
1

 Run end date and time (yyyy/mm/dd hh:mm:ss): 2026/02/25  4:40:13
 Elapsed run time: 12.605 Seconds

