                                  MODFLOW-2005     
      U.S. GEOLOGICAL SURVEY MODULAR FINITE-DIFFERENCE GROUND-WATER FLOW MODEL
                            VERSION 1.12.00 2/3/2017

 LIST FILE: static_ensemble_1321331.list
                         UNIT    2

 OPENING static_ensemble_1321331.dis
 FILE TYPE:DIS   UNIT   11   STATUS:OLD    
 FORMAT:FORMATTED              ACCESS:SEQUENTIAL          

 OPENING static_ensemble_1321331.bas
 FILE TYPE:BAS6   UNIT   13   STATUS:OLD    
 FORMAT:FORMATTED              ACCESS:SEQUENTIAL          

 OPENING static_ensemble_1321331.lpf
 FILE TYPE:LPF   UNIT   15   STATUS:OLD    
 FORMAT:FORMATTED              ACCESS:SEQUENTIAL          

 OPENING static_ensemble_1321331.evt
 FILE TYPE:EVT   UNIT   22   STATUS:OLD    
 FORMAT:FORMATTED              ACCESS:SEQUENTIAL          

 OPENING static_ensemble_1321331.rch
 FILE TYPE:RCH   UNIT   19   STATUS:OLD    
 FORMAT:FORMATTED              ACCESS:SEQUENTIAL          

 OPENING static_ensemble_1321331.riv
 FILE TYPE:RIV   UNIT   18   STATUS:OLD    
 FORMAT:FORMATTED              ACCESS:SEQUENTIAL          

 OPENING static_ensemble_1321331.wel
 FILE TYPE:WEL   UNIT   20   STATUS:OLD    
 FORMAT:FORMATTED              ACCESS:SEQUENTIAL          

 OPENING static_ensemble_1321331.oc
 FILE TYPE:OC   UNIT   14   STATUS:OLD    
 FORMAT:FORMATTED              ACCESS:SEQUENTIAL          

 OPENING static_ensemble_1321331.pcg
 FILE TYPE:PCG   UNIT   27   STATUS:OLD    
 FORMAT:FORMATTED              ACCESS:SEQUENTIAL          

 OPENING static_ensemble_1321331.cbc
 FILE TYPE:DATA(BINARY)   UNIT   53   STATUS:REPLACE
 FORMAT:UNFORMATTED            ACCESS:STREAM              

 OPENING static_ensemble_1321331.hds
 FILE TYPE:DATA(BINARY)   UNIT   51   STATUS:REPLACE
 FORMAT:UNFORMATTED            ACCESS:STREAM              

 OPENING static_ensemble_1321331.ddn
 FILE TYPE:DATA(BINARY)   UNIT   52   STATUS:REPLACE
 FORMAT:UNFORMATTED            ACCESS:STREAM              

 BAS -- BASIC PACKAGE, VERSION 7, 5/2/2005 INPUT READ FROM UNIT   13
 
 MODFLOW was compiled using mixed precision
 Precision of REAL variables:           6
 Precision of DOUBLE PRECISION variables:          15

 DISCRETIZATION INPUT DATA READ FROM UNIT   11
 # DIS package for MODFLOW-2005 generated by Flopy 3.9.5
    3 LAYERS        50 ROWS        50 COLUMNS
    1 STRESS PERIOD(S) IN SIMULATION
 MODEL TIME UNIT IS DAYS
 MODEL LENGTH UNIT IS METERS
  Confining bed flag for each layer:
   0   0   0

                     DELR =   1000.00    

                     DELC =   1000.00    



           TOP ELEVATION OF LAYER 1
 READING ON UNIT   11 WITH FORMAT: (50E15.6)           



             MODEL LAYER BOTTOM EL. FOR LAYER   1
 READING ON UNIT   11 WITH FORMAT: (50E15.6)           



             MODEL LAYER BOTTOM EL. FOR LAYER   2
 READING ON UNIT   11 WITH FORMAT: (50E15.6)           



             MODEL LAYER BOTTOM EL. FOR LAYER   3
 READING ON UNIT   11 WITH FORMAT: (50E15.6)           


 STRESS PERIOD     LENGTH       TIME STEPS     MULTIPLIER FOR DELT    SS FLAG
 ----------------------------------------------------------------------------
        1         1.000000          1                    1.000         SS

 STEADY-STATE SIMULATION



 
 # BAS6 package for MODFLOW-2005 generated by Flopy 3.9.5                        
 THE FREE FORMAT OPTION HAS BEEN SELECTED



                     BOUNDARY ARRAY FOR LAYER   1
 READING ON UNIT   13 WITH FORMAT: (50I10)             



                     BOUNDARY ARRAY FOR LAYER   2
 READING ON UNIT   13 WITH FORMAT: (50I10)             



                     BOUNDARY ARRAY FOR LAYER   3
 READING ON UNIT   13 WITH FORMAT: (50I10)             

 AQUIFER HEAD WILL BE SET TO  -999.99     AT ALL NO-FLOW NODES (IBOUND=0).



                       INITIAL HEAD FOR LAYER   1
 READING ON UNIT   13 WITH FORMAT: (50E15.6)           



                       INITIAL HEAD FOR LAYER   2
 READING ON UNIT   13 WITH FORMAT: (50E15.6)           



                       INITIAL HEAD FOR LAYER   3
 READING ON UNIT   13 WITH FORMAT: (50E15.6)           
 # OC package for MODFLOW-2005 generated by Flopy 3.9.5

 OUTPUT CONTROL IS SPECIFIED ONLY AT TIME STEPS FOR WHICH OUTPUT IS DESIRED
 COMPACT CELL-BY-CELL BUDGET FILES WILL BE WRITTEN
 AUXILIARY DATA WILL BE SAVED IN CELL-BY-CELL BUDGET FILES
 HEAD PRINT FORMAT CODE IS   0    DRAWDOWN PRINT FORMAT CODE IS   0
 HEADS WILL BE SAVED ON UNIT   51    DRAWDOWNS WILL BE SAVED ON UNIT   52

 LPF -- LAYER-PROPERTY FLOW PACKAGE, VERSION 7, 5/2/2005
         INPUT READ FROM UNIT   15
 # LPF package for MODFLOW-2005 generated by Flopy 3.9.5
 CELL-BY-CELL FLOWS WILL BE SAVED ON UNIT   53
 HEAD AT CELLS THAT CONVERT TO DRY= -1.00000E+30
 No named parameters
 STORAGECOEFFICIENT OPTION:
 Read storage coefficient rather than specific storage

   LAYER FLAGS:
 LAYER       LAYTYP        LAYAVG         CHANI        LAYVKA        LAYWET
 ---------------------------------------------------------------------------
    1             1             0     1.000E+00             0             0
    2             1             0     1.000E+00             0             0
    3             1             0     1.000E+00             0             0

   INTERPRETATION OF LAYER FLAGS:
                        INTERBLOCK     HORIZONTAL    DATA IN
         LAYER TYPE   TRANSMISSIVITY   ANISOTROPY   ARRAY VKA   WETTABILITY
 LAYER      (LAYTYP)      (LAYAVG)       (CHANI)      (LAYVKA)      (LAYWET)
 ---------------------------------------------------------------------------
    1   CONVERTIBLE      HARMONIC     1.000E+00    VERTICAL K  NON-WETTABLE
    2   CONVERTIBLE      HARMONIC     1.000E+00    VERTICAL K  NON-WETTABLE
    3   CONVERTIBLE      HARMONIC     1.000E+00    VERTICAL K  NON-WETTABLE

 WETTING CAPABILITY IS NOT ACTIVE IN ANY LAYER



              HYD. COND. ALONG ROWS FOR LAYER   1
 READING ON UNIT   15 WITH FORMAT: (50E15.6)           



                VERTICAL HYD. COND. FOR LAYER   1
 READING ON UNIT   15 WITH FORMAT: (50E15.6)           



              HYD. COND. ALONG ROWS FOR LAYER   2
 READING ON UNIT   15 WITH FORMAT: (50E15.6)           



                VERTICAL HYD. COND. FOR LAYER   2
 READING ON UNIT   15 WITH FORMAT: (50E15.6)           



              HYD. COND. ALONG ROWS FOR LAYER   3
 READING ON UNIT   15 WITH FORMAT: (50E15.6)           



                VERTICAL HYD. COND. FOR LAYER   3
 READING ON UNIT   15 WITH FORMAT: (50E15.6)           

 WEL -- WELL PACKAGE, VERSION 7, 5/2/2005 INPUT READ FROM UNIT   20
 # WEL package for MODFLOW-2005 generated by Flopy 3.9.5
 No named parameters
 MAXIMUM OF      3 ACTIVE WELLS AT ONE TIME


     0 Well parameters

 RIV -- RIVER PACKAGE, VERSION 7, 5/2/2005 INPUT READ FROM UNIT   18
 # RIV package for MODFLOW-2005 generated by Flopy 3.9.5
 No named parameters
 MAXIMUM OF     49 ACTIVE RIVER REACHES AT ONE TIME
 CELL-BY-CELL FLOWS WILL BE SAVED ON UNIT   53


     0 River parameters

 EVT -- EVAPOTRANSPIRATION PACKAGE, VERSION 7, 5/2/2005
         INPUT READ FROM UNIT   22
 # EVT package for MODFLOW-2005 generated by Flopy 3.9.5
 No named parameters
 OPTION 3 -- EVAPOTRANSPIRATION FROM HIGHEST ACTIVE NODE IN EACH VERTICAL COLUMN
 CELL-BY-CELL FLOWS WILL BE SAVED ON UNIT   53


     0 Evapotranspiration parameters

 RCH -- RECHARGE PACKAGE, VERSION 7, 5/2/2005 INPUT READ FROM UNIT   19
 # RCH package for MODFLOW-2005 generated by Flopy 3.9.5
 No named parameters
 OPTION 3 -- RECHARGE TO HIGHEST ACTIVE NODE IN EACH VERTICAL COLUMN
 CELL-BY-CELL FLOWS WILL BE SAVED ON UNIT   53


     0 Recharge parameters

 PCG -- CONJUGATE-GRADIENT SOLUTION PACKAGE, VERSION 7, 5/2/2005
 # PCG package for MODFLOW-2005 generated by Flopy 3.9.5
 MAXIMUM OF   5000 CALLS OF SOLUTION ROUTINE
 MAXIMUM OF    500 INTERNAL ITERATIONS PER CALL TO SOLUTION ROUTINE
 MATRIX PRECONDITIONING TYPE :    1



                                    SOLUTION BY THE CONJUGATE-GRADIENT METHOD
                                   -------------------------------------------
                    MAXIMUM NUMBER OF CALLS TO PCG ROUTINE =     5000
                        MAXIMUM ITERATIONS PER CALL TO PCG =      500
                               MATRIX PRECONDITIONING TYPE =        1
        RELAXATION FACTOR (ONLY USED WITH PRECOND. TYPE 1) =    0.97000E+00
 PARAMETER OF POLYNOMIAL PRECOND. = 2 (2) OR IS CALCULATED :        0
                         HEAD CHANGE CRITERION FOR CLOSURE =    0.10000E-04
                     RESIDUAL CHANGE CRITERION FOR CLOSURE =    0.10000E-04
            PCG HEAD AND RESIDUAL CHANGE PRINTOUT INTERVAL =      999
     PRINTING FROM SOLVER IS LIMITED(1) OR SUPPRESSED (>1) =        3
                            STEADY-STATE DAMPING PARAMETER =    0.10000E-01
                               TRANSIENT DAMPING PARAMETER =    0.10000E-01
1
                            STRESS PERIOD NO.    1, LENGTH =   1.000000    
                            -----------------------------------------------

                              NUMBER OF TIME STEPS =     1

                               MULTIPLIER FOR DELT =     1.000

                            INITIAL TIME STEP SIZE =   1.000000    

 WELL NO.  LAYER   ROW   COL   STRESS RATE         
 --------------------------------------------------
      1      3     22     39      -1500.    
      2      1     13     15       0.000    
      3      1     25     26       375.0    

      3 WELLS

 REACH NO.  LAYER   ROW   COL     STAGE      CONDUCTANCE     BOTTOM EL.         
 -------------------------------------------------------------------------------
      1      1     25      2       100.5           50.00           98.00    
      2      1     25      3       99.50           50.00           97.00    
      3      1     25      4       98.50           50.00           96.00    
      4      1     25      5       97.50           50.00           95.00    
      5      1     25      6       96.50           50.00           94.00    
      6      1     25      7       95.50           50.00           93.00    
      7      1     25      8       94.50           50.00           92.00    
      8      1     25      9       93.50           50.00           91.00    
      9      1     25     10       92.50           50.00           90.00    
     10      1     25     11       91.50           50.00           89.00    
     11      1     25     12       90.50           50.00           88.00    
     12      1     25     13       89.50           50.00           87.00    
     13      1     25     14       88.50           50.00           86.00    
     14      1     25     15       87.50           50.00           85.00    
     15      1     25     16       86.50           50.00           84.00    
     16      1     25     17       85.50           50.00           83.00    
     17      1     25     18       84.50           50.00           82.00    
     18      1     25     19       83.50           50.00           81.00    
     19      1     25     20       82.50           50.00           80.00    
     20      1     25     21       81.50           50.00           79.00    
     21      1     25     22       80.50           50.00           78.00    
     22      1     25     23       79.50           50.00           77.00    
     23      1     25     24       78.50           50.00           76.00    
     24      1     25     25       77.50           50.00           75.00    
     25      1     25     26       77.40           50.00           74.90    
     26      1     25     27       77.30           50.00           74.80    
     27      1     25     28       77.20           50.00           74.70    
     28      1     25     29       77.10           50.00           74.60    
     29      1     25     30       77.00           50.00           74.50    
     30      1     25     31       76.90           50.00           74.40    
     31      1     25     32       76.80           50.00           74.30    
     32      1     25     33       76.70           50.00           74.20    
     33      1     25     34       76.60           50.00           74.10    
     34      1     25     35       76.50           50.00           74.00    
     35      1     25     36       76.40           50.00           73.90    
     36      1     25     37       76.30           50.00           73.80    
     37      1     25     38       76.20           50.00           73.70    
     38      1     25     39       76.10           50.00           73.60    
     39      1     25     40       76.00           50.00           73.50    
     40      1     25     41       75.90           50.00           73.40    
     41      1     25     42       75.80           50.00           73.30    
     42      1     25     43       75.70           50.00           73.20    
     43      1     25     44       75.60           50.00           73.10    
     44      1     25     45       75.50           50.00           73.00    
     45      1     25     46       75.40           50.00           72.90    
     46      1     25     47       75.30           50.00           72.80    
     47      1     25     48       75.20           50.00           72.70    
     48      1     25     49       75.10           50.00           72.60    
     49      1     25     50       75.00           50.00           72.50    

     49 RIVER REACHES



                         ET SURFACE
 READING ON UNIT   22 WITH FORMAT: (50E15.6)           



            EVAPOTRANSPIRATION RATE
 READING ON UNIT   22 WITH FORMAT: (50E15.6)           

         EXTINCTION DEPTH =   10.0000    



                           RECHARGE
 READING ON UNIT   19 WITH FORMAT: (50E15.6)           
 
 SOLVING FOR HEAD 

 OUTPUT CONTROL FOR STRESS PERIOD    1   TIME STEP    1
    SAVE HEAD FOR ALL LAYERS
    SAVE DRAWDOWN FOR ALL LAYERS
    SAVE BUDGET
    PRINT HEAD FOR ALL LAYERS
    PRINT BUDGET
 UBDSV2 SAVING "   CONSTANT HEAD" ON UNIT  53 AT TIME STEP  1, STRESS PERIOD   1
 UBDSV1 SAVING "FLOW RIGHT FACE " ON UNIT  53 AT TIME STEP  1, STRESS PERIOD   1
 UBDSV1 SAVING "FLOW FRONT FACE " ON UNIT  53 AT TIME STEP  1, STRESS PERIOD   1
 UBDSV1 SAVING "FLOW LOWER FACE " ON UNIT  53 AT TIME STEP  1, STRESS PERIOD   1
 UBDSV4 SAVING "   RIVER LEAKAGE" ON UNIT  53 AT TIME STEP  1, STRESS PERIOD   1
 UBDSV3 SAVING "              ET" ON UNIT  53 AT TIME STEP  1, STRESS PERIOD   1
 UBDSV3 SAVING "        RECHARGE" ON UNIT  53 AT TIME STEP  1, STRESS PERIOD   1
1
              HEAD IN LAYER   1 AT END OF TIME STEP   1 IN STRESS PERIOD    1
  ---------------------------------------------------------------------------

            1           2           3           4           5           6           7           8           9          10
           11          12          13          14          15          16          17          18          19          20
           21          22          23          24          25          26          27          28          29          30
           31          32          33          34          35          36          37          38          39          40
           41          42          43          44          45          46          47          48          49          50
 ........................................................................................................................
   1  -1000.0     -1000.0     -1000.0     -1000.0     -1000.0     -1000.0     -1000.0     -1000.0     -1000.0     -1000.0    
      -1000.0     -1000.0     -1000.0     -1000.0     -1000.0     -1000.0     -1000.0     -1000.0     -1000.0     -1000.0    
      -1000.0     -1000.0     -1000.0     -1000.0     -1000.0     -1000.0     -1000.0     -1000.0     -1000.0     -1000.0    
      -1000.0     -1000.0     -1000.0     -1000.0     -1000.0     -1000.0     -1000.0     -1000.0     -1000.0     -1000.0    
      -1000.0     -1000.0     -1000.0     -1000.0     -1000.0     -1000.0     -1000.0     -1000.0     -1000.0       70.00    
   2  -1000.0     -1000.0     -1000.0     -1000.0     -1000.0       79.57       79.46       79.29       79.09       78.85    
        78.67       78.45       78.19       77.90       77.59       77.24       76.90       76.56       76.22       75.89    
        75.56       75.23       74.91       74.60       74.29       73.99       73.71       73.43       73.16       72.90    
        72.66       72.42       72.20       71.99       71.79       71.60       71.42       71.26       71.11       70.97    
        70.84       70.72       70.61       70.50       70.41       70.32       70.23       70.15       70.08       70.00    
   3  -1000.0     -1000.0     -1000.0     -1000.0       79.73       79.62       79.47       79.29       79.07       78.89    
        78.69       78.45       78.19       77.90       77.59       77.24       76.90       76.56       76.22       75.88    
        75.55       75.22       74.90       74.59       74.28       73.98       73.70       73.42       73.15       72.89    
        72.64       72.41       72.18       71.97       71.77       71.59       71.41       71.25       71.10       70.96    
        70.83       70.71       70.60       70.50       70.40       70.31       70.23       70.15       70.08       70.00    
   4  -1000.0     -1000.0     -1000.0       79.88       79.78       79.64       79.48       79.28       79.11       78.92    
        78.70       78.46       78.20       77.90       77.58       77.24       76.89       76.55       76.21       75.87    
        75.54       75.21       74.89       74.57       74.26       73.96       73.67       73.39       73.13       72.87    
        72.62       72.38       72.16       71.95       71.75       71.56       71.39       71.22       71.07       70.94    
        70.81       70.69       70.58       70.48       70.39       70.30       70.22       70.15       70.07       70.00    
   5  -1000.0     -1000.0       80.01       79.93       79.81       79.66       79.48       79.32       79.14       78.95    
        78.72       78.48       78.20       77.91       77.58       77.23       76.88       76.54       76.19       75.85    
        75.52       75.19       74.86       74.54       74.23       73.93       73.64       73.36       73.09       72.83    
        72.58       72.35       72.12       71.91       71.71       71.52       71.35       71.19       71.04       70.90    
        70.78       70.66       70.55       70.46       70.37       70.29       70.21       70.14       70.07       70.00    
   6  -1000.0       80.10       80.04       79.95       79.82       79.66       79.52       79.36       79.17       78.97    
        78.74       78.49       78.21       77.91       77.58       77.22       76.87       76.52       76.17       75.83    
        75.49       75.15       74.83       74.51       74.20       73.89       73.60       73.32       73.04       72.78    
        72.53       72.29       72.07       71.86       71.66       71.47       71.30       71.14       70.99       70.86    
        70.73       70.62       70.52       70.43       70.34       70.27       70.19       70.13       70.06       70.00    
   7  -1000.0       80.10       80.05       79.95       79.82       79.70       79.55       79.39       79.20       78.99    
        78.76       78.50       78.21       77.91       77.57       77.21       76.85       76.50       76.15       75.80    
        75.45       75.12       74.79       74.46       74.15       73.84       73.54       73.26       72.98       72.72    
        72.47       72.23       72.01       71.79       71.59       71.41       71.24       71.08       70.93       70.80    
        70.68       70.57       70.48       70.39       70.31       70.24       70.17       70.11       70.06       70.00    
   8  -1000.0       80.10       80.05       79.95       79.85       79.73       79.58       79.42       79.23       79.01    
        78.77       78.51       78.22       77.90       77.56       77.20       76.83       76.47       76.12       75.76    
        75.41       75.07       74.73       74.41       74.09       73.78       73.48       73.19       72.91       72.65    
        72.39       72.15       71.93       71.71       71.51       71.33       71.16       71.00       70.86       70.73    
        70.62       70.51       70.42       70.34       70.27       70.21       70.15       70.10       70.05       70.00    
   9  -1000.0       80.10       80.05       79.98       79.88       79.76       79.61       79.44       79.25       79.03    
        78.78       78.51       78.22       77.90       77.55       77.18       76.81       76.44       76.08       75.72    
        75.36       75.02       74.67       74.34       74.02       73.70       73.40       73.11       72.83       72.56    
        72.30       72.06       71.83       71.62       71.42       71.24       71.07       70.91       70.77       70.65    
        70.54       70.44       70.36       70.28       70.22       70.17       70.12       70.08       70.04       70.00    
  10  -1000.0       80.11       80.07       80.00       79.91       79.79       79.64       79.47       79.27       79.04    
        78.79       78.52       78.22       77.89       77.54       77.16       76.78       76.41       76.04       75.67    
        75.31       74.95       74.60       74.27       73.94       73.62       73.31       73.01       72.73       72.46    
        72.20       71.95       71.73       71.51       71.31       71.13       70.96       70.81       70.67       70.55    
        70.45       70.36       70.28       70.22       70.16       70.12       70.08       70.05       70.02       70.00    
  11  -1000.0       80.13       80.09       80.03       79.94       79.81       79.67       79.49       79.29       79.06    
        78.81       78.52       78.22       77.88       77.52       77.14       76.75       76.37       75.99       75.61    
        75.24       74.88       74.52       74.18       73.84       73.52       73.20       72.90       72.61       72.34    
        72.08       71.83       71.60       71.39       71.19       71.00       70.84       70.69       70.55       70.44    
        70.34       70.26       70.19       70.14       70.09       70.06       70.04       70.02       70.01       70.00    
  12  -1000.0       80.15       80.12       80.06       79.97       79.84       79.70       79.52       79.31       79.08    
        78.82       78.53       78.21       77.87       77.50       77.11       76.72       76.32       75.93       75.55    
        75.17       74.80       74.43       74.08       73.74       73.40       73.08       72.78       72.49       72.21    
        71.94       71.69       71.46       71.24       71.04       70.86       70.69       70.55       70.42       70.31    
        70.22       70.15       70.09       70.05       70.02       70.00       69.99       69.99       69.99       70.00    
  13  -1000.0       80.19       80.16       80.09       80.00       79.88       79.73       79.55       79.34       79.10    
        78.83       78.54       78.21       77.86       77.48       77.08       76.68       76.27       75.87       75.48    
        75.09       74.71       74.33       73.97       73.62       73.28       72.95       72.64       72.34       72.06    
        71.79       71.54       71.30       71.08       70.88       70.70       70.53       70.39       70.26       70.16    
        70.08       70.02       69.97       69.94       69.93       69.93       69.94       69.95       69.97       70.00    
  14  -1000.0       80.23       80.20       80.13       80.04       79.92       79.76       79.58       79.36       79.12    
        78.84       78.54       78.21       77.85       77.46       77.05       76.63       76.22       75.81       75.40    
        75.00       74.60       74.22       73.84       73.48       73.14       72.80       72.49       72.18       71.90    
        71.62       71.37       71.13       70.91       70.70       70.52       70.35       70.21       70.09       69.99    
        69.92       69.87       69.84       69.82       69.83       69.84       69.87       69.91       69.95       70.00    
  15  -1000.0       80.27       80.24       80.18       80.08       79.96       79.80       79.61       79.39       79.14    
        78.86       78.55       78.21       77.84       77.44       77.01       76.59       76.16       75.73       75.31    
        74.89       74.49       74.09       73.70       73.33       72.98       72.64       72.31       72.01       71.71    
        71.44       71.18       70.94       70.71       70.50       70.31       70.15       70.00       69.89       69.80    
        69.74       69.70       69.68       69.69       69.71       69.75       69.80       69.86       69.93       70.00    
  16  -1000.0       80.33       80.30       80.23       80.13       80.01       79.85       79.65       79.43       79.17    
        78.88       78.56       78.21       77.83       77.42       76.98       76.54       76.09       75.65       75.21    
        74.78       74.36       73.95       73.55       73.17       72.80       72.45       72.12       71.81       71.52    
        71.24       70.97       70.73       70.50       70.28       70.09       69.91       69.77       69.66       69.58    
        69.53       69.51       69.51       69.54       69.58       69.64       69.72       69.80       69.90       70.00    
  17  -1000.0       80.39       80.36       80.29       80.19       80.06       79.90       79.70       79.47       79.21    
        78.91       78.58       78.22       77.82       77.40       76.94       76.48       76.02       75.56       75.11    
        74.66       74.22       73.79       73.38       72.98       72.60       72.25       71.91       71.60       71.30    
        71.02       70.75       70.50       70.26       70.04       69.84       69.66       69.50       69.39       69.32    
        69.29       69.29       69.32       69.37       69.43       69.52       69.62       69.74       69.87       70.00    
  18  -1000.0       80.46       80.43       80.36       80.26       80.12       79.96       79.75       79.52       79.25    
        78.94       78.60       78.23       77.82       77.38       76.91       76.43       75.95       75.47       74.99    
        74.52       74.06       73.61       73.18       72.77       72.39       72.02       71.68       71.36       71.06    
        70.78       70.51       70.26       70.01       69.78       69.56       69.36       69.20       69.08       69.03    
        69.02       69.05       69.10       69.17       69.27       69.38       69.51       69.66       69.82       70.00    
  19  -1000.0       80.54       80.50       80.43       80.33       80.19       80.02       79.82       79.57       79.29    
        78.98       78.63       78.25       77.82       77.37       76.88       76.38       75.88       75.37       74.87    
        74.37       73.89       73.42       72.97       72.54       72.14       71.77       71.43       71.11       70.81    
        70.52       70.26       70.00       69.75       69.50       69.27       69.04       68.84       68.71       68.68    
        68.71       68.78       68.86       68.96       69.08       69.22       69.38       69.56       69.77       70.00    
  20  -1000.0       80.62       80.59       80.52       80.41       80.27       80.10       79.89       79.64       79.35    
        79.03       78.67       78.27       77.83       77.36       76.85       76.33       75.80       75.27       74.74    
        74.21       73.69       73.20       72.72       72.28       71.87       71.49       71.15       70.83       70.53    
        70.25       69.99       69.73       69.48       69.22       68.96       68.68       68.42       68.24       68.27    
        68.37       68.49       68.61       68.74       68.87       69.03       69.22       69.44       69.71       70.00    
  21  -1000.0       80.72       80.69       80.61       80.51       80.37       80.19       79.97       79.72       79.42    
        79.09       78.72       78.30       77.85       77.36       76.82       76.28       75.72       75.16       74.60    
        74.03       73.48       72.95       72.44       71.97       71.55       71.18       70.84       70.53       70.24    
        69.97       69.71       69.46       69.20       68.94       68.65       68.32       67.93       67.54       67.77    
        68.01       68.20       68.35       68.50       68.65       68.82       69.03       69.29       69.61       70.00    
  22  -1000.0       80.83       80.79       80.72       80.61       80.47       80.28       80.06       79.80       79.51    
        79.16       78.78       78.35       77.88       77.37       76.81       76.23       75.65       75.05       74.45    
        73.84       73.25       72.66       72.12       71.62       71.20       70.83       70.50       70.20       69.92    
        69.67       69.43       69.19       68.94       68.68       68.38       68.00       67.42       66.22       67.26    
        67.70       67.94       68.11       68.25       68.39       68.57       68.79       69.08       69.47       70.00    
  23  -1000.0       80.95       80.91       80.84       80.73       80.58       80.40       80.17       79.91       79.60    
        79.25       78.86       78.42       77.93       77.39       76.80       76.20       75.57       74.94       74.29    
        73.64       73.01       72.40       71.83       71.33       70.92       70.53       70.19       69.89       69.62    
        69.38       69.15       68.92       68.70       68.46       68.19       67.89       67.51       67.13       67.36    
        67.58       67.75       67.88       68.01       68.15       68.32       68.56       68.89       69.35       70.00    
  24  -1000.0       81.08       81.04       80.97       80.86       80.71       80.52       80.29       80.03       79.72    
        79.36       78.96       78.50       77.99       77.43       76.81       76.17       75.51       74.84       74.16    
        73.48       72.82       72.19       71.62       71.14       70.77       70.34       69.97       69.66       69.39    
        69.15       68.93       68.72       68.51       68.30       68.08       67.84       67.61       67.43       67.45    
        67.54       67.63       67.73       67.83       67.97       68.14       68.40       68.75       69.26       70.00    
  25  -1000.0       81.22       81.18       81.11       81.00       80.85       80.66       80.43       80.16       79.85    
        79.49       79.08       78.61       78.08       77.49       76.85       76.18       75.50       74.80       74.10    
        73.41       72.74       72.11       71.54       71.10       70.92       70.30       69.89       69.57       69.30    
        69.06       68.85       68.65       68.45       68.26       68.07       67.89       67.72       67.60       67.57    
        67.59       67.63       67.70       67.79       67.91       68.09       68.35       68.73       69.27       70.00    
  26  -1000.0       81.06       81.03       80.95       80.84       80.69       80.50       80.28       80.00       79.69    
        79.33       78.91       78.43       77.89       77.29       76.64       75.96       75.27       74.57       73.87    
        73.18       72.50       71.87       71.29       70.80       70.42       69.99       69.62       69.31       69.05    
        68.82       68.61       68.41       68.23       68.05       67.89       67.73       67.60       67.50       67.45    
        67.43       67.45       67.49       67.57       67.69       67.87       68.13       68.53       69.11       70.00    
  27  -1000.0       80.92       80.88       80.81       80.70       80.55       80.36       80.13       79.86       79.55    
        79.19       78.78       78.31       77.79       77.21       76.57       75.91       75.23       74.54       73.85    
        73.17       72.51       71.88       71.30       70.79       70.36       69.98       69.63       69.34       69.08    
        68.85       68.64       68.45       68.27       68.11       67.96       67.82       67.70       67.61       67.55    
        67.52       67.52       67.55       67.62       67.73       67.90       68.16       68.55       69.13       70.00    
  28  -1000.0       80.79       80.75       80.68       80.57       80.42       80.23       80.01       79.74       79.43    
        79.08       78.68       78.23       77.72       77.17       76.56       75.94       75.29       74.63       73.97    
        73.32       72.69       72.08       71.51       71.00       70.56       70.18       69.85       69.56       69.30    
        69.07       68.86       68.67       68.50       68.33       68.19       68.06       67.95       67.86       67.80    
        67.77       67.76       67.78       67.84       67.95       68.12       68.36       68.72       69.24       70.00    
  29  -1000.0       80.67       80.63       80.56       80.45       80.31       80.12       79.90       79.64       79.33    
        78.99       78.60       78.16       77.68       77.15       76.58       75.99       75.38       74.77       74.16    
        73.56       72.97       72.41       71.88       71.39       70.93       70.55       70.21       69.91       69.65    
        69.41       69.20       69.00       68.82       68.66       68.52       68.39       68.28       68.20       68.14    
        68.10       68.10       68.12       68.18       68.28       68.44       68.67       68.99       69.43       70.00    
  30  -1000.0       80.56       80.52       80.45       80.35       80.20       80.02       79.80       79.55       79.25    
        78.91       78.53       78.11       77.65       77.14       76.60       76.04       75.47       74.90       74.33    
        73.77       73.23       72.70       72.20       71.73       71.29       70.90       70.57       70.27       70.00    
        69.75       69.53       69.33       69.15       68.99       68.85       68.72       68.61       68.53       68.47    
        68.43       68.42       68.44       68.50       68.59       68.74       68.94       69.21       69.57       70.00    
  31  -1000.0       80.46       80.43       80.36       80.25       80.11       79.93       79.72       79.47       79.18    
        78.85       78.48       78.08       77.63       77.15       76.63       76.10       75.57       75.03       74.49    
        73.97       73.46       72.96       72.49       72.04       71.62       71.25       70.91       70.61       70.33    
        70.08       69.86       69.65       69.47       69.30       69.15       69.03       68.92       68.83       68.77    
        68.73       68.72       68.74       68.79       68.87       69.00       69.17       69.40       69.67       70.00    
  32  -1000.0       80.37       80.34       80.27       80.17       80.03       79.86       79.65       79.40       79.12    
        78.80       78.45       78.06       77.63       77.17       76.67       76.16       75.66       75.15       74.64    
        74.15       73.66       73.19       72.75       72.32       71.92       71.56       71.22       70.92       70.64    
        70.39       70.16       69.95       69.76       69.59       69.44       69.31       69.20       69.11       69.05    
        69.00       68.99       69.00       69.04       69.11       69.22       69.36       69.54       69.76       70.00    
  33  -1000.0       80.30       80.26       80.19       80.09       79.96       79.79       79.58       79.35       79.07    
        78.76       78.42       78.04       77.63       77.19       76.71       76.23       75.74       75.26       74.78    
        74.31       73.85       73.40       72.98       72.57       72.19       71.83       71.50       71.20       70.92    
        70.67       70.43       70.22       70.03       69.86       69.71       69.57       69.46       69.37       69.30    
        69.25       69.23       69.23       69.26       69.31       69.40       69.51       69.65       69.82       70.00    
  34  -1000.0       80.23       80.19       80.13       80.03       79.90       79.73       79.53       79.30       79.03    
        78.73       78.40       78.04       77.64       77.21       76.75       76.29       75.82       75.36       74.91    
        74.46       74.02       73.59       73.18       72.79       72.42       72.08       71.75       71.45       71.18    
        70.92       70.69       70.47       70.28       70.11       69.95       69.81       69.70       69.60       69.53    
        69.47       69.44       69.43       69.45       69.49       69.55       69.64       69.74       69.87       70.00    
  35  -1000.0       80.17       80.13       80.07       79.97       79.84       79.68       79.48       79.26       79.00    
        78.71       78.39       78.03       77.65       77.23       76.79       76.35       75.90       75.46       75.02    
        74.59       74.17       73.76       73.37       72.99       72.63       72.30       71.98       71.68       71.41    
        71.15       70.92       70.70       70.51       70.33       70.17       70.03       69.91       69.81       69.73    
        69.67       69.63       69.61       69.61       69.63       69.68       69.74       69.81       69.90       70.00    
  36  -1000.0       80.11       80.08       80.02       79.92       79.79       79.63       79.44       79.22       78.97    
        78.69       78.38       78.03       77.66       77.26       76.83       76.40       75.97       75.55       75.13    
        74.71       74.31       73.92       73.54       73.17       72.82       72.49       72.18       71.89       71.62    
        71.37       71.13       70.91       70.72       70.54       70.38       70.24       70.11       70.01       69.92    
        69.85       69.80       69.77       69.76       69.76       69.79       69.82       69.87       69.93       70.00    
  37  -1000.0       80.07       80.03       79.97       79.88       79.75       79.60       79.41       79.19       78.95    
        78.67       78.37       78.04       77.68       77.29       76.87       76.45       76.04       75.63       75.22    
        74.82       74.43       74.05       73.69       73.33       72.99       72.67       72.36       72.08       71.81    
        71.56       71.32       71.11       70.91       70.73       70.56       70.42       70.29       70.18       70.08    
        70.01       69.95       69.91       69.88       69.87       69.88       69.90       69.92       69.96       70.00    
  38  -1000.0       80.03       79.99       79.93       79.84       79.71       79.56       79.38       79.17       78.93    
        78.66       78.37       78.04       77.69       77.31       76.91       76.50       76.10       75.70       75.31    
        74.92       74.54       74.18       73.82       73.47       73.14       72.83       72.53       72.24       71.98    
        71.73       71.49       71.28       71.08       70.90       70.73       70.58       70.45       70.33       70.23    
        70.15       70.08       70.03       69.99       69.97       69.96       69.96       69.97       69.98       70.00    
  39  -1000.0       79.99       79.96       79.90       79.80       79.68       79.53       79.35       79.15       78.91    
        78.65       78.36       78.05       77.70       77.34       76.94       76.55       76.16       75.77       75.39    
        75.01       74.64       74.29       73.94       73.60       73.28       72.97       72.67       72.39       72.13    
        71.88       71.65       71.43       71.23       71.05       70.88       70.73       70.59       70.47       70.36    
        70.27       70.20       70.14       70.09       70.05       70.03       70.01       70.00       70.00       70.00    
  40  -1000.0       79.97       79.93       79.87       79.77       79.65       79.50       79.33       79.13       78.90    
        78.64       78.36       78.05       77.72       77.36       76.97       76.59       76.21       75.83       75.46    
        75.09       74.73       74.38       74.04       73.71       73.40       73.09       72.80       72.53       72.26    
        72.02       71.79       71.57       71.37       71.18       71.01       70.86       70.72       70.59       70.48    
        70.38       70.30       70.23       70.17       70.12       70.09       70.06       70.03       70.02       70.00    
  41  -1000.0       79.95       79.91       79.84       79.75       79.63       79.48       79.31       79.11       78.88    
        78.63       78.36       78.06       77.73       77.38       77.00       76.62       76.25       75.88       75.52    
        75.16       74.81       74.47       74.13       73.81       73.50       73.20       72.91       72.64       72.38    
        72.14       71.91       71.69       71.49       71.30       71.13       70.97       70.83       70.70       70.58    
        70.48       70.39       70.31       70.24       70.19       70.14       70.10       70.06       70.03       70.00    
  42  -1000.0       79.94       79.89       79.82       79.72       79.60       79.45       79.28       79.09       78.87    
        78.62       78.35       78.06       77.74       77.39       77.02       76.66       76.29       75.93       75.57    
        75.22       74.88       74.54       74.21       73.90       73.59       73.30       73.01       72.74       72.49    
        72.24       72.01       71.80       71.59       71.41       71.23       71.07       70.92       70.79       70.67    
        70.56       70.47       70.38       70.30       70.24       70.18       70.13       70.08       70.04       70.00    
  43  -1000.0       79.94       79.89       79.79       79.69       79.57       79.43       79.26       79.07       78.85    
        78.61       78.35       78.06       77.75       77.41       77.04       76.68       76.32       75.97       75.62    
        75.27       74.94       74.61       74.28       73.97       73.67       73.38       73.10       72.83       72.57    
        72.33       72.10       71.89       71.68       71.49       71.32       71.16       71.01       70.87       70.75    
        70.63       70.53       70.44       70.36       70.28       70.22       70.16       70.10       70.05       70.00    
  44  -1000.0       79.94       79.89       79.80       79.66       79.54       79.40       79.23       79.04       78.83    
        78.60       78.34       78.06       77.75       77.42       77.06       76.71       76.35       76.00       75.66    
        75.32       74.99       74.66       74.34       74.03       73.73       73.45       73.17       72.90       72.65    
        72.41       72.18       71.96       71.76       71.57       71.39       71.23       71.08       70.94       70.81    
        70.69       70.59       70.49       70.40       70.32       70.25       70.18       70.12       70.06       70.00    
  45  -1000.0       79.94       79.88       79.79       79.66       79.50       79.36       79.20       79.02       78.81    
        78.58       78.33       78.06       77.75       77.43       77.07       76.72       76.38       76.03       75.69    
        75.35       75.03       74.70       74.39       74.08       73.79       73.50       73.23       72.96       72.71    
        72.47       72.24       72.03       71.82       71.63       71.45       71.29       71.13       70.99       70.86    
        70.74       70.63       70.53       70.44       70.35       70.27       70.20       70.13       70.07       70.00    
  46  -1000.0     -1000.0       79.85       79.77       79.65       79.50       79.32       79.17       78.99       78.79    
        78.57       78.32       78.05       77.75       77.43       77.08       76.74       76.39       76.05       75.72    
        75.38       75.06       74.74       74.43       74.12       73.83       73.55       73.27       73.01       72.76    
        72.52       72.29       72.08       71.87       71.68       71.50       71.34       71.18       71.04       70.90    
        70.78       70.67       70.56       70.47       70.38       70.29       70.22       70.14       70.07       70.00    
  47  -1000.0     -1000.0     -1000.0       79.72       79.62       79.49       79.33       79.13       78.95       78.76    
        78.55       78.31       78.05       77.75       77.43       77.09       76.75       76.41       76.07       75.73    
        75.41       75.08       74.77       74.46       74.15       73.86       73.58       73.31       73.05       72.80    
        72.56       72.33       72.11       71.91       71.72       71.54       71.37       71.21       71.07       70.93    
        70.81       70.69       70.59       70.49       70.39       70.31       70.23       70.15       70.07       70.00    
  48  -1000.0     -1000.0     -1000.0     -1000.0       79.57       79.46       79.32       79.14       78.92       78.73    
        78.53       78.30       78.04       77.75       77.44       77.09       76.75       76.42       76.08       75.75    
        75.42       75.10       74.78       74.47       74.17       73.88       73.60       73.33       73.07       72.82    
        72.58       72.35       72.14       71.93       71.74       71.56       71.39       71.24       71.09       70.95    
        70.83       70.71       70.60       70.50       70.41       70.32       70.23       70.15       70.08       70.00    
  49  -1000.0     -1000.0     -1000.0     -1000.0     -1000.0       79.42       79.31       79.14       78.93       78.70    
        78.52       78.29       78.04       77.75       77.44       77.10       76.76       76.42       76.08       75.75    
        75.43       75.11       74.79       74.48       74.18       73.89       73.61       73.34       73.08       72.83    
        72.59       72.37       72.15       71.95       71.75       71.57       71.41       71.25       71.10       70.96    
        70.84       70.72       70.61       70.51       70.41       70.32       70.24       70.16       70.08       70.00    
  50  -1000.0     -1000.0     -1000.0     -1000.0     -1000.0     -1000.0     -1000.0     -1000.0     -1000.0     -1000.0    
      -1000.0     -1000.0     -1000.0     -1000.0     -1000.0     -1000.0     -1000.0     -1000.0     -1000.0     -1000.0    
      -1000.0     -1000.0     -1000.0     -1000.0     -1000.0     -1000.0     -1000.0     -1000.0     -1000.0     -1000.0    
      -1000.0     -1000.0     -1000.0     -1000.0     -1000.0     -1000.0     -1000.0     -1000.0     -1000.0     -1000.0    
      -1000.0     -1000.0     -1000.0     -1000.0     -1000.0     -1000.0     -1000.0     -1000.0     -1000.0       70.00    
1
              HEAD IN LAYER   2 AT END OF TIME STEP   1 IN STRESS PERIOD    1
  ---------------------------------------------------------------------------

            1           2           3           4           5           6           7           8           9          10
           11          12          13          14          15          16          17          18          19          20
           21          22          23          24          25          26          27          28          29          30
           31          32          33          34          35          36          37          38          39          40
           41          42          43          44          45          46          47          48          49          50
 ........................................................................................................................
   1  -1000.0     -1000.0     -1000.0     -1000.0     -1000.0     -1000.0     -1000.0     -1000.0     -1000.0     -1000.0    
      -1000.0     -1000.0     -1000.0     -1000.0     -1000.0     -1000.0     -1000.0     -1000.0     -1000.0     -1000.0    
      -1000.0     -1000.0     -1000.0     -1000.0     -1000.0     -1000.0     -1000.0     -1000.0     -1000.0     -1000.0    
      -1000.0     -1000.0     -1000.0     -1000.0     -1000.0     -1000.0     -1000.0     -1000.0     -1000.0     -1000.0    
      -1000.0     -1000.0     -1000.0     -1000.0     -1000.0     -1000.0     -1000.0     -1000.0     -1000.0       70.00    
   2  -1000.0     -1000.0     -1000.0     -1000.0     -1000.0     -1000.0     -1000.0       79.29       79.09       78.85    
        78.67       78.45       78.19       77.90       77.59       77.24       76.90       76.56       76.22       75.89    
        75.56       75.23       74.91       74.60       74.29       73.99       73.71       73.43       73.16       72.90    
        72.66       72.42       72.20       71.99       71.79       71.60       71.42       71.26       71.11       70.97    
        70.84       70.72       70.61       70.50       70.41       70.32       70.23       70.15       70.08       70.00    
   3  -1000.0     -1000.0     -1000.0     -1000.0     -1000.0     -1000.0       79.47       79.29       79.07       78.89    
        78.69       78.45       78.19       77.90       77.59       77.24       76.90       76.56       76.22       75.88    
        75.55       75.22       74.90       74.59       74.28       73.98       73.70       73.42       73.15       72.89    
        72.64       72.41       72.18       71.97       71.77       71.59       71.41       71.25       71.10       70.96    
        70.83       70.71       70.60       70.50       70.40       70.31       70.23       70.15       70.08       70.00    
   4  -1000.0     -1000.0     -1000.0     -1000.0     -1000.0       79.64       79.48       79.28       79.11       78.92    
        78.70       78.46       78.20       77.90       77.58       77.24       76.89       76.55       76.21       75.87    
        75.54       75.21       74.89       74.57       74.26       73.96       73.67       73.39       73.13       72.87    
        72.62       72.38       72.16       71.95       71.75       71.56       71.39       71.22       71.07       70.94    
        70.81       70.69       70.58       70.48       70.39       70.30       70.22       70.15       70.07       70.00    
   5  -1000.0     -1000.0     -1000.0     -1000.0       79.81       79.66       79.48       79.32       79.14       78.95    
        78.72       78.48       78.20       77.91       77.58       77.23       76.88       76.54       76.19       75.85    
        75.52       75.19       74.86       74.54       74.23       73.93       73.64       73.36       73.09       72.83    
        72.58       72.35       72.12       71.91       71.71       71.52       71.35       71.19       71.04       70.90    
        70.78       70.66       70.55       70.46       70.37       70.29       70.21       70.14       70.07       70.00    
   6  -1000.0     -1000.0     -1000.0       79.95       79.82       79.66       79.52       79.36       79.17       78.97    
        78.74       78.49       78.21       77.91       77.58       77.22       76.87       76.52       76.17       75.83    
        75.49       75.15       74.83       74.51       74.20       73.89       73.60       73.32       73.04       72.78    
        72.53       72.29       72.07       71.86       71.66       71.47       71.30       71.14       70.99       70.86    
        70.73       70.62       70.52       70.43       70.34       70.27       70.19       70.13       70.06       70.00    
   7  -1000.0     -1000.0       80.05       79.95       79.82       79.70       79.55       79.39       79.20       78.99    
        78.76       78.50       78.21       77.91       77.57       77.21       76.85       76.50       76.15       75.80    
        75.45       75.12       74.79       74.46       74.15       73.84       73.54       73.26       72.98       72.72    
        72.47       72.23       72.01       71.79       71.59       71.41       71.24       71.08       70.93       70.80    
        70.68       70.57       70.48       70.39       70.31       70.24       70.17       70.11       70.06       70.00    
   8  -1000.0       80.10       80.05       79.95       79.85       79.73       79.58       79.42       79.23       79.01    
        78.77       78.51       78.22       77.90       77.56       77.20       76.83       76.47       76.12       75.76    
        75.41       75.07       74.73       74.41       74.09       73.78       73.48       73.19       72.91       72.65    
        72.39       72.15       71.93       71.71       71.51       71.33       71.16       71.00       70.86       70.73    
        70.62       70.51       70.42       70.34       70.27       70.21       70.15       70.10       70.05       70.00    
   9  -1000.0       80.10       80.05       79.98       79.88       79.76       79.61       79.44       79.25       79.03    
        78.78       78.51       78.22       77.90       77.55       77.18       76.81       76.44       76.08       75.72    
        75.36       75.02       74.67       74.34       74.02       73.70       73.40       73.11       72.83       72.56    
        72.30       72.06       71.83       71.62       71.42       71.24       71.07       70.91       70.77       70.65    
        70.54       70.44       70.36       70.28       70.22       70.17       70.12       70.08       70.04       70.00    
  10  -1000.0       80.11       80.07       80.00       79.91       79.79       79.64       79.47       79.27       79.04    
        78.79       78.52       78.22       77.89       77.54       77.16       76.78       76.41       76.04       75.67    
        75.31       74.95       74.60       74.27       73.94       73.62       73.31       73.01       72.73       72.46    
        72.20       71.95       71.73       71.51       71.31       71.13       70.96       70.81       70.67       70.55    
        70.45       70.36       70.28       70.22       70.16       70.12       70.08       70.05       70.02       70.00    
  11  -1000.0       80.13       80.09       80.03       79.94       79.81       79.67       79.49       79.29       79.06    
        78.81       78.52       78.22       77.88       77.52       77.14       76.75       76.37       75.99       75.61    
        75.24       74.88       74.52       74.18       73.84       73.52       73.20       72.90       72.61       72.34    
        72.08       71.83       71.60       71.39       71.19       71.00       70.84       70.69       70.55       70.44    
        70.34       70.26       70.19       70.14       70.09       70.06       70.04       70.02       70.01       70.00    
  12  -1000.0       80.15       80.12       80.06       79.97       79.84       79.70       79.52       79.31       79.08    
        78.82       78.53       78.21       77.87       77.50       77.11       76.72       76.32       75.93       75.55    
        75.17       74.80       74.43       74.08       73.74       73.40       73.08       72.78       72.49       72.21    
        71.94       71.69       71.46       71.24       71.04       70.86       70.69       70.55       70.42       70.31    
        70.22       70.15       70.09       70.05       70.02       70.00       69.99       69.99       69.99       70.00    
  13  -1000.0       80.19       80.16       80.09       80.00       79.88       79.73       79.55       79.34       79.10    
        78.83       78.54       78.21       77.86       77.48       77.08       76.68       76.27       75.87       75.48    
        75.09       74.71       74.33       73.97       73.62       73.28       72.95       72.64       72.34       72.06    
        71.79       71.54       71.30       71.08       70.88       70.70       70.53       70.39       70.26       70.16    
        70.08       70.02       69.97       69.94       69.93       69.93       69.94       69.95       69.97       70.00    
  14  -1000.0       80.23       80.20       80.13       80.04       79.92       79.76       79.58       79.36       79.12    
        78.84       78.54       78.21       77.85       77.46       77.05       76.63       76.22       75.81       75.40    
        75.00       74.60       74.22       73.84       73.48       73.14       72.80       72.49       72.18       71.90    
        71.62       71.37       71.13       70.91       70.70       70.52       70.35       70.21       70.09       69.99    
        69.92       69.87       69.84       69.82       69.83       69.84       69.87       69.91       69.95       70.00    
  15  -1000.0       80.27       80.24       80.18       80.08       79.96       79.80       79.61       79.39       79.14    
        78.86       78.55       78.21       77.84       77.44       77.01       76.59       76.16       75.73       75.31    
        74.89       74.49       74.09       73.70       73.33       72.98       72.64       72.31       72.01       71.71    
        71.44       71.18       70.94       70.71       70.50       70.31       70.15       70.00       69.89       69.80    
        69.74       69.70       69.68       69.69       69.71       69.75       69.80       69.86       69.93       70.00    
  16  -1000.0       80.33       80.30       80.23       80.13       80.01       79.85       79.65       79.43       79.17    
        78.88       78.56       78.21       77.83       77.42       76.98       76.54       76.09       75.65       75.21    
        74.78       74.36       73.95       73.55       73.17       72.80       72.45       72.12       71.81       71.52    
        71.24       70.97       70.73       70.50       70.28       70.09       69.91       69.77       69.66       69.58    
        69.53       69.51       69.51       69.54       69.58       69.64       69.72       69.80       69.90       70.00    
  17  -1000.0       80.39       80.36       80.29       80.19       80.06       79.90       79.70       79.47       79.21    
        78.91       78.58       78.22       77.82       77.40       76.94       76.48       76.02       75.56       75.11    
        74.66       74.22       73.79       73.38       72.98       72.60       72.25       71.91       71.60       71.30    
        71.02       70.75       70.50       70.26       70.04       69.84       69.66       69.50       69.39       69.32    
        69.29       69.29       69.32       69.37       69.43       69.52       69.62       69.74       69.87       70.00    
  18  -1000.0       80.46       80.43       80.36       80.26       80.12       79.96       79.75       79.52       79.25    
        78.94       78.60       78.23       77.82       77.38       76.91       76.43       75.95       75.47       74.99    
        74.52       74.06       73.61       73.18       72.77       72.39       72.02       71.68       71.36       71.06    
        70.78       70.51       70.26       70.01       69.78       69.56       69.36       69.20       69.08       69.03    
        69.02       69.05       69.10       69.17       69.27       69.38       69.51       69.66       69.82       70.00    
  19  -1000.0       80.54       80.50       80.43       80.33       80.19       80.02       79.82       79.57       79.29    
        78.98       78.63       78.25       77.82       77.37       76.88       76.38       75.88       75.37       74.87    
        74.37       73.89       73.42       72.97       72.54       72.14       71.77       71.43       71.11       70.81    
        70.52       70.26       70.00       69.75       69.50       69.27       69.04       68.84       68.71       68.68    
        68.71       68.78       68.86       68.96       69.08       69.22       69.38       69.56       69.77       70.00    
  20  -1000.0       80.62       80.59       80.52       80.41       80.27       80.10       79.89       79.64       79.35    
        79.03       78.67       78.27       77.83       77.36       76.85       76.33       75.80       75.27       74.74    
        74.21       73.69       73.20       72.72       72.28       71.87       71.49       71.15       70.83       70.53    
        70.25       69.99       69.73       69.48       69.22       68.96       68.68       68.42       68.24       68.27    
        68.37       68.49       68.61       68.74       68.87       69.03       69.22       69.44       69.71       70.00    
  21  -1000.0       80.72       80.69       80.61       80.51       80.37       80.19       79.97       79.72       79.42    
        79.09       78.72       78.30       77.85       77.36       76.82       76.28       75.72       75.16       74.60    
        74.03       73.48       72.95       72.44       71.97       71.55       71.18       70.84       70.53       70.24    
        69.97       69.71       69.46       69.20       68.94       68.65       68.32       67.93       67.54       67.77    
        68.01       68.20       68.35       68.50       68.65       68.82       69.03       69.29       69.61       70.00    
  22  -1000.0       80.83       80.79       80.72       80.61       80.47       80.28       80.06       79.80       79.50    
        79.16       78.78       78.35       77.88       77.37       76.81       76.23       75.65       75.05       74.45    
        73.84       73.25       72.66       72.12       71.62       71.20       70.83       70.50       70.20       69.92    
        69.67       69.43       69.19       68.94       68.68       68.38       68.00       67.42       66.22       67.26    
        67.70       67.94       68.11       68.25       68.39       68.57       68.79       69.08       69.47       70.00    
  23  -1000.0       80.95       80.91       80.84       80.73       80.58       80.40       80.17       79.91       79.60    
        79.25       78.86       78.42       77.93       77.39       76.80       76.20       75.57       74.94       74.29    
        73.64       73.01       72.40       71.83       71.33       70.92       70.53       70.19       69.89       69.62    
        69.38       69.15       68.92       68.70       68.46       68.19       67.89       67.51       67.13       67.36    
        67.58       67.75       67.88       68.01       68.15       68.32       68.56       68.89       69.35       70.00    
  24  -1000.0       81.08       81.04       80.97       80.86       80.71       80.52       80.29       80.03       79.72    
        79.36       78.96       78.50       77.99       77.43       76.81       76.17       75.51       74.84       74.16    
        73.48       72.82       72.19       71.62       71.14       70.77       70.34       69.97       69.66       69.39    
        69.15       68.93       68.72       68.51       68.30       68.08       67.84       67.61       67.43       67.45    
        67.54       67.63       67.73       67.83       67.97       68.14       68.40       68.75       69.26       70.00    
  25  -1000.0       81.22       81.18       81.11       81.00       80.85       80.66       80.43       80.16       79.85    
        79.49       79.08       78.61       78.08       77.49       76.85       76.18       75.50       74.80       74.10    
        73.41       72.74       72.11       71.54       71.10       70.92       70.30       69.89       69.57       69.30    
        69.06       68.85       68.65       68.45       68.26       68.07       67.89       67.72       67.60       67.57    
        67.59       67.63       67.70       67.79       67.91       68.09       68.35       68.73       69.27       70.00    
  26  -1000.0       81.06       81.03       80.95       80.84       80.69       80.50       80.28       80.00       79.69    
        79.33       78.91       78.43       77.89       77.29       76.64       75.96       75.27       74.57       73.87    
        73.18       72.50       71.87       71.29       70.80       70.42       69.99       69.62       69.31       69.05    
        68.82       68.61       68.41       68.23       68.05       67.89       67.73       67.60       67.50       67.45    
        67.43       67.45       67.49       67.57       67.69       67.87       68.13       68.53       69.11       70.00    
  27  -1000.0       80.92       80.88       80.81       80.70       80.55       80.36       80.13       79.86       79.55    
        79.19       78.78       78.31       77.79       77.21       76.57       75.91       75.23       74.54       73.85    
        73.17       72.51       71.88       71.30       70.79       70.36       69.98       69.63       69.34       69.08    
        68.85       68.64       68.45       68.27       68.11       67.96       67.82       67.70       67.61       67.55    
        67.52       67.52       67.55       67.62       67.73       67.90       68.16       68.55       69.13       70.00    
  28  -1000.0       80.79       80.75       80.68       80.57       80.42       80.23       80.01       79.74       79.43    
        79.08       78.68       78.23       77.72       77.17       76.56       75.94       75.29       74.63       73.98    
        73.32       72.69       72.08       71.51       71.00       70.56       70.18       69.85       69.56       69.30    
        69.07       68.86       68.67       68.50       68.33       68.19       68.06       67.95       67.86       67.80    
        67.77       67.76       67.78       67.84       67.95       68.12       68.36       68.72       69.24       70.00    
  29  -1000.0       80.67       80.63       80.56       80.45       80.31       80.12       79.90       79.64       79.33    
        78.99       78.60       78.16       77.68       77.15       76.58       75.99       75.38       74.77       74.16    
        73.56       72.97       72.41       71.88       71.39       70.93       70.55       70.21       69.91       69.65    
        69.41       69.20       69.00       68.82       68.66       68.52       68.39       68.28       68.20       68.14    
        68.10       68.10       68.12       68.18       68.28       68.44       68.67       68.99       69.43       70.00    
  30  -1000.0       80.56       80.52       80.45       80.35       80.20       80.02       79.80       79.55       79.25    
        78.91       78.53       78.11       77.65       77.14       76.60       76.04       75.47       74.90       74.33    
        73.77       73.23       72.70       72.20       71.73       71.29       70.90       70.57       70.27       70.00    
        69.75       69.53       69.33       69.15       68.99       68.85       68.72       68.61       68.53       68.47    
        68.43       68.42       68.44       68.50       68.59       68.74       68.94       69.21       69.57       70.00    
  31  -1000.0       80.46       80.43       80.36       80.25       80.11       79.93       79.72       79.47       79.18    
        78.85       78.48       78.08       77.63       77.15       76.63       76.10       75.57       75.03       74.49    
        73.97       73.46       72.96       72.49       72.04       71.62       71.25       70.91       70.61       70.33    
        70.08       69.86       69.65       69.47       69.30       69.15       69.03       68.92       68.83       68.77    
        68.73       68.72       68.74       68.79       68.87       69.00       69.17       69.40       69.67       70.00    
  32  -1000.0       80.37       80.34       80.27       80.17       80.03       79.86       79.65       79.40       79.12    
        78.80       78.45       78.06       77.63       77.17       76.67       76.16       75.66       75.15       74.64    
        74.15       73.66       73.19       72.75       72.32       71.92       71.56       71.22       70.92       70.64    
        70.39       70.16       69.95       69.76       69.59       69.44       69.31       69.20       69.11       69.05    
        69.00       68.99       69.00       69.04       69.11       69.22       69.36       69.54       69.76       70.00    
  33  -1000.0       80.30       80.26       80.19       80.09       79.96       79.79       79.58       79.35       79.07    
        78.76       78.42       78.04       77.63       77.19       76.71       76.23       75.74       75.26       74.78    
        74.31       73.85       73.40       72.98       72.57       72.19       71.83       71.50       71.20       70.92    
        70.67       70.43       70.22       70.03       69.86       69.71       69.57       69.46       69.37       69.30    
        69.25       69.23       69.23       69.26       69.31       69.40       69.51       69.65       69.82       70.00    
  34  -1000.0       80.23       80.19       80.13       80.03       79.90       79.73       79.53       79.30       79.03    
        78.73       78.40       78.04       77.64       77.21       76.75       76.29       75.82       75.36       74.91    
        74.46       74.02       73.59       73.18       72.79       72.42       72.08       71.75       71.45       71.18    
        70.92       70.69       70.47       70.28       70.11       69.95       69.81       69.70       69.60       69.53    
        69.47       69.44       69.43       69.45       69.49       69.55       69.64       69.74       69.87       70.00    
  35  -1000.0       80.17       80.13       80.07       79.97       79.84       79.68       79.48       79.26       79.00    
        78.71       78.39       78.03       77.65       77.23       76.79       76.35       75.90       75.46       75.02    
        74.59       74.17       73.76       73.37       72.99       72.63       72.30       71.98       71.68       71.41    
        71.15       70.92       70.70       70.51       70.33       70.17       70.03       69.91       69.81       69.73    
        69.67       69.63       69.61       69.61       69.63       69.68       69.74       69.81       69.90       70.00    
  36  -1000.0       80.11       80.08       80.02       79.92       79.79       79.63       79.44       79.22       78.97    
        78.69       78.38       78.03       77.66       77.26       76.83       76.40       75.97       75.55       75.13    
        74.71       74.31       73.92       73.54       73.17       72.82       72.49       72.18       71.89       71.62    
        71.37       71.13       70.91       70.72       70.54       70.38       70.24       70.11       70.01       69.92    
        69.85       69.80       69.77       69.76       69.76       69.79       69.82       69.87       69.93       70.00    
  37  -1000.0       80.07       80.03       79.97       79.88       79.75       79.60       79.41       79.19       78.95    
        78.67       78.37       78.04       77.68       77.29       76.87       76.45       76.04       75.63       75.22    
        74.82       74.43       74.05       73.69       73.33       72.99       72.67       72.36       72.08       71.81    
        71.56       71.32       71.11       70.91       70.73       70.56       70.42       70.29       70.18       70.08    
        70.01       69.95       69.91       69.88       69.87       69.88       69.90       69.92       69.96       70.00    
  38  -1000.0       80.03       79.99       79.93       79.84       79.71       79.56       79.38       79.17       78.93    
        78.66       78.37       78.04       77.69       77.31       76.91       76.50       76.10       75.70       75.31    
        74.92       74.54       74.18       73.82       73.47       73.14       72.83       72.53       72.24       71.98    
        71.73       71.49       71.28       71.08       70.90       70.73       70.58       70.45       70.33       70.23    
        70.15       70.08       70.03       69.99       69.97       69.96       69.96       69.97       69.98       70.00    
  39  -1000.0       79.99       79.96       79.90       79.80       79.68       79.53       79.35       79.15       78.91    
        78.65       78.36       78.05       77.70       77.34       76.94       76.55       76.16       75.77       75.39    
        75.01       74.64       74.29       73.94       73.60       73.28       72.97       72.67       72.39       72.13    
        71.88       71.65       71.43       71.23       71.05       70.88       70.73       70.59       70.47       70.36    
        70.27       70.20       70.14       70.09       70.05       70.03       70.01       70.00       70.00       70.00    
  40  -1000.0       79.97       79.93       79.87       79.77       79.65       79.50       79.33       79.13       78.90    
        78.64       78.36       78.05       77.72       77.36       76.97       76.59       76.21       75.83       75.46    
        75.09       74.73       74.38       74.04       73.71       73.40       73.09       72.80       72.53       72.26    
        72.02       71.79       71.57       71.37       71.18       71.01       70.86       70.72       70.59       70.48    
        70.38       70.30       70.23       70.17       70.12       70.09       70.06       70.03       70.02       70.00    
  41  -1000.0       79.95       79.91       79.84       79.75       79.63       79.48       79.31       79.11       78.88    
        78.63       78.36       78.06       77.73       77.38       77.00       76.62       76.25       75.88       75.52    
        75.16       74.81       74.47       74.13       73.81       73.50       73.20       72.91       72.64       72.38    
        72.14       71.91       71.69       71.49       71.30       71.13       70.97       70.83       70.70       70.58    
        70.48       70.39       70.31       70.24       70.19       70.14       70.10       70.06       70.03       70.00    
  42  -1000.0       79.94       79.89       79.82       79.72       79.60       79.45       79.28       79.09       78.87    
        78.62       78.35       78.06       77.74       77.39       77.02       76.66       76.29       75.93       75.57    
        75.22       74.88       74.54       74.21       73.90       73.59       73.30       73.01       72.74       72.49    
        72.24       72.01       71.80       71.59       71.41       71.23       71.07       70.92       70.79       70.67    
        70.56       70.47       70.38       70.30       70.24       70.18       70.13       70.08       70.04       70.00    
  43  -1000.0       79.94       79.89       79.79       79.69       79.57       79.43       79.26       79.07       78.85    
        78.61       78.35       78.06       77.75       77.41       77.04       76.68       76.32       75.97       75.62    
        75.27       74.94       74.61       74.28       73.97       73.67       73.38       73.10       72.83       72.57    
        72.33       72.10       71.89       71.68       71.49       71.32       71.16       71.01       70.87       70.75    
        70.63       70.53       70.44       70.36       70.28       70.22       70.16       70.10       70.05       70.00    
  44  -1000.0     -1000.0       79.89       79.80       79.66       79.54       79.40       79.23       79.04       78.83    
        78.60       78.34       78.06       77.75       77.42       77.06       76.71       76.35       76.00       75.66    
        75.32       74.99       74.66       74.34       74.03       73.73       73.45       73.17       72.90       72.65    
        72.41       72.18       71.96       71.76       71.57       71.39       71.23       71.08       70.94       70.81    
        70.69       70.59       70.49       70.40       70.32       70.25       70.18       70.12       70.06       70.00    
  45  -1000.0     -1000.0     -1000.0       79.79       79.66       79.50       79.36       79.20       79.02       78.81    
        78.58       78.33       78.06       77.75       77.43       77.07       76.72       76.38       76.03       75.69    
        75.35       75.03       74.70       74.39       74.08       73.79       73.50       73.23       72.96       72.71    
        72.47       72.24       72.03       71.82       71.63       71.45       71.29       71.13       70.99       70.86    
        70.74       70.63       70.53       70.44       70.35       70.27       70.20       70.13       70.07       70.00    
  46  -1000.0     -1000.0     -1000.0     -1000.0       79.65       79.50       79.32       79.17       78.99       78.79    
        78.57       78.32       78.05       77.75       77.43       77.08       76.74       76.39       76.05       75.72    
        75.38       75.06       74.74       74.43       74.12       73.83       73.55       73.27       73.01       72.76    
        72.52       72.29       72.08       71.87       71.68       71.50       71.34       71.18       71.04       70.90    
        70.78       70.67       70.56       70.47       70.38       70.29       70.22       70.14       70.07       70.00    
  47  -1000.0     -1000.0     -1000.0     -1000.0     -1000.0       79.49       79.33       79.13       78.95       78.76    
        78.55       78.31       78.05       77.75       77.43       77.09       76.75       76.41       76.07       75.73    
        75.41       75.08       74.77       74.46       74.15       73.86       73.58       73.31       73.05       72.80    
        72.56       72.33       72.11       71.91       71.72       71.54       71.37       71.21       71.07       70.93    
        70.81       70.69       70.59       70.49       70.39       70.31       70.23       70.15       70.07       70.00    
  48  -1000.0     -1000.0     -1000.0     -1000.0     -1000.0     -1000.0       79.32       79.14       78.92       78.73    
        78.53       78.30       78.04       77.75       77.44       77.09       76.75       76.42       76.08       75.75    
        75.42       75.10       74.78       74.47       74.17       73.88       73.60       73.33       73.07       72.82    
        72.58       72.35       72.14       71.93       71.74       71.56       71.39       71.24       71.09       70.95    
        70.83       70.71       70.60       70.50       70.41       70.32       70.23       70.15       70.08       70.00    
  49  -1000.0     -1000.0     -1000.0     -1000.0     -1000.0     -1000.0     -1000.0       79.14       78.93       78.70    
        78.52       78.29       78.04       77.75       77.44       77.10       76.76       76.42       76.08       75.75    
        75.43       75.11       74.79       74.48       74.18       73.89       73.61       73.34       73.08       72.83    
        72.59       72.37       72.15       71.95       71.75       71.57       71.41       71.25       71.10       70.96    
        70.84       70.72       70.61       70.51       70.41       70.32       70.24       70.16       70.08       70.00    
  50  -1000.0     -1000.0     -1000.0     -1000.0     -1000.0     -1000.0     -1000.0     -1000.0     -1000.0     -1000.0    
      -1000.0     -1000.0     -1000.0     -1000.0     -1000.0     -1000.0     -1000.0     -1000.0     -1000.0     -1000.0    
      -1000.0     -1000.0     -1000.0     -1000.0     -1000.0     -1000.0     -1000.0     -1000.0     -1000.0     -1000.0    
      -1000.0     -1000.0     -1000.0     -1000.0     -1000.0     -1000.0     -1000.0     -1000.0     -1000.0     -1000.0    
      -1000.0     -1000.0     -1000.0     -1000.0     -1000.0     -1000.0     -1000.0     -1000.0     -1000.0       70.00    
1
              HEAD IN LAYER   3 AT END OF TIME STEP   1 IN STRESS PERIOD    1
  ---------------------------------------------------------------------------

            1           2           3           4           5           6           7           8           9          10
           11          12          13          14          15          16          17          18          19          20
           21          22          23          24          25          26          27          28          29          30
           31          32          33          34          35          36          37          38          39          40
[...]
        73.64       73.01       72.40       71.83       71.33       70.92       70.53       70.19       69.89       69.62    
        69.38       69.15       68.92       68.70       68.46       68.19       67.89       67.51       67.13       67.36    
        67.58       67.75       67.88       68.01       68.15       68.32       68.56       68.89       69.35       70.00    
  24  -1000.0       81.08       81.04       80.97       80.86       80.71       80.52       80.29       80.03       79.72    
        79.36       78.96       78.50       77.99       77.43       76.81       76.17       75.51       74.84       74.16    
        73.48       72.82       72.19       71.62       71.14       70.77       70.34       69.97       69.66       69.39    
        69.15       68.93       68.72       68.51       68.30       68.08       67.84       67.61       67.43       67.45    
        67.54       67.63       67.73       67.83       67.97       68.14       68.40       68.75       69.26       70.00    
  25  -1000.0       81.22       81.18       81.11       81.00       80.85       80.66       80.43       80.16       79.85    
        79.49       79.08       78.61       78.08       77.49       76.85       76.18       75.50       74.80       74.10    
        73.41       72.74       72.11       71.54       71.10       70.92       70.30       69.89       69.57       69.30    
        69.06       68.85       68.65       68.45       68.26       68.07       67.89       67.72       67.60       67.57    
        67.59       67.63       67.70       67.79       67.91       68.09       68.35       68.73       69.27       70.00    
  26  -1000.0       81.06       81.03       80.95       80.84       80.69       80.50       80.28       80.00       79.69    
        79.33       78.91       78.43       77.89       77.29       76.64       75.96       75.27       74.57       73.87    
        73.18       72.50       71.87       71.29       70.80       70.42       69.99       69.62       69.31       69.05    
        68.82       68.61       68.41       68.23       68.05       67.89       67.73       67.60       67.50       67.45    
        67.43       67.45       67.49       67.57       67.69       67.87       68.13       68.53       69.11       70.00    
  27  -1000.0       80.92       80.88       80.81       80.70       80.55       80.36       80.13       79.86       79.55    
        79.19       78.78       78.31       77.79       77.21       76.57       75.91       75.23       74.54       73.85    
        73.17       72.51       71.88       71.30       70.79       70.36       69.98       69.63       69.34       69.08    
        68.85       68.64       68.45       68.27       68.11       67.96       67.82       67.70       67.61       67.55    
        67.52       67.52       67.55       67.62       67.73       67.90       68.16       68.55       69.13       70.00    
  28  -1000.0       80.79       80.75       80.68       80.57       80.42       80.23       80.01       79.74       79.43    
        79.08       78.68       78.22       77.72       77.17       76.56       75.94       75.29       74.63       73.98    
        73.32       72.69       72.08       71.51       71.00       70.56       70.18       69.85       69.56       69.30    
        69.07       68.86       68.67       68.50       68.33       68.19       68.06       67.95       67.86       67.80    
        67.77       67.76       67.78       67.84       67.95       68.12       68.36       68.72       69.24       70.00    
  29  -1000.0       80.67       80.63       80.56       80.45       80.31       80.12       79.90       79.64       79.33    
        78.99       78.60       78.16       77.68       77.15       76.58       75.99       75.38       74.77       74.16    
        73.56       72.97       72.41       71.88       71.39       70.93       70.55       70.21       69.91       69.65    
        69.41       69.20       69.00       68.82       68.66       68.52       68.39       68.28       68.20       68.14    
        68.10       68.10       68.12       68.18       68.28       68.44       68.67       68.99       69.43       70.00    
  30  -1000.0       80.56       80.52       80.45       80.35       80.20       80.02       79.80       79.55       79.25    
        78.91       78.53       78.11       77.65       77.14       76.60       76.04       75.47       74.90       74.33    
        73.77       73.23       72.70       72.20       71.73       71.29       70.90       70.57       70.27       70.00    
        69.75       69.53       69.33       69.15       68.99       68.85       68.72       68.61       68.53       68.47    
        68.43       68.42       68.44       68.50       68.59       68.74       68.94       69.21       69.57       70.00    
  31  -1000.0       80.46       80.43       80.36       80.25       80.11       79.93       79.72       79.47       79.18    
        78.85       78.48       78.08       77.63       77.15       76.63       76.10       75.57       75.03       74.49    
        73.97       73.46       72.96       72.49       72.04       71.62       71.25       70.91       70.61       70.33    
        70.08       69.86       69.65       69.47       69.30       69.15       69.03       68.92       68.83       68.77    
        68.73       68.72       68.74       68.79       68.87       69.00       69.17       69.40       69.67       70.00    
  32  -1000.0       80.37       80.34       80.27       80.17       80.03       79.86       79.65       79.40       79.12    
        78.80       78.45       78.06       77.63       77.17       76.67       76.16       75.66       75.15       74.64    
        74.15       73.66       73.19       72.75       72.32       71.92       71.56       71.22       70.92       70.64    
        70.39       70.16       69.95       69.76       69.59       69.44       69.31       69.20       69.11       69.05    
        69.00       68.99       69.00       69.04       69.11       69.22       69.36       69.54       69.76       70.00    
  33  -1000.0       80.30       80.26       80.19       80.09       79.96       79.79       79.58       79.35       79.07    
        78.76       78.42       78.04       77.63       77.19       76.71       76.23       75.74       75.26       74.78    
        74.31       73.85       73.40       72.98       72.57       72.19       71.83       71.50       71.20       70.92    
        70.67       70.43       70.22       70.03       69.86       69.71       69.57       69.46       69.37       69.30    
        69.25       69.23       69.23       69.26       69.31       69.40       69.51       69.65       69.82       70.00    
  34  -1000.0       80.23       80.19       80.13       80.03       79.90       79.73       79.53       79.30       79.03    
        78.73       78.40       78.04       77.64       77.21       76.75       76.29       75.82       75.36       74.91    
        74.46       74.02       73.59       73.18       72.79       72.42       72.08       71.75       71.45       71.18    
        70.92       70.69       70.47       70.28       70.11       69.95       69.81       69.70       69.60       69.53    
        69.47       69.44       69.43       69.45       69.49       69.55       69.64       69.74       69.87       70.00    
  35  -1000.0       80.17       80.13       80.07       79.97       79.84       79.68       79.48       79.26       79.00    
        78.71       78.39       78.03       77.65       77.23       76.79       76.35       75.90       75.46       75.02    
        74.59       74.17       73.76       73.37       72.99       72.63       72.30       71.98       71.68       71.41    
        71.15       70.92       70.70       70.51       70.33       70.17       70.03       69.91       69.81       69.73    
        69.67       69.63       69.61       69.61       69.63       69.68       69.74       69.81       69.90       70.00    
  36  -1000.0       80.11       80.08       80.02       79.92       79.79       79.63       79.44       79.22       78.97    
        78.69       78.38       78.03       77.66       77.26       76.83       76.40       75.97       75.55       75.13    
        74.71       74.31       73.92       73.54       73.17       72.82       72.49       72.18       71.89       71.62    
        71.37       71.13       70.91       70.72       70.54       70.38       70.24       70.11       70.01       69.92    
        69.85       69.80       69.77       69.76       69.76       69.79       69.82       69.87       69.93       70.00    
  37  -1000.0       80.07       80.03       79.97       79.88       79.75       79.60       79.41       79.19       78.95    
        78.67       78.37       78.04       77.68       77.29       76.87       76.45       76.04       75.63       75.22    
        74.82       74.43       74.05       73.69       73.33       72.99       72.67       72.36       72.08       71.81    
        71.56       71.32       71.11       70.91       70.73       70.56       70.42       70.29       70.18       70.08    
        70.01       69.95       69.91       69.88       69.87       69.88       69.90       69.92       69.96       70.00    
  38  -1000.0       80.03       79.99       79.93       79.84       79.71       79.56       79.38       79.17       78.93    
        78.66       78.37       78.04       77.69       77.31       76.91       76.50       76.10       75.70       75.31    
        74.92       74.54       74.18       73.82       73.47       73.14       72.83       72.53       72.24       71.98    
        71.73       71.49       71.28       71.08       70.90       70.73       70.58       70.45       70.33       70.23    
        70.15       70.08       70.03       69.99       69.97       69.96       69.96       69.97       69.98       70.00    
  39  -1000.0       79.99       79.96       79.90       79.80       79.68       79.53       79.35       79.15       78.91    
        78.65       78.36       78.05       77.70       77.34       76.94       76.55       76.16       75.77       75.39    
        75.01       74.64       74.29       73.94       73.60       73.28       72.97       72.67       72.39       72.13    
        71.88       71.65       71.43       71.23       71.05       70.88       70.73       70.59       70.47       70.36    
        70.27       70.20       70.14       70.09       70.05       70.03       70.01       70.00       70.00       70.00    
  40  -1000.0       79.97       79.93       79.87       79.77       79.65       79.50       79.33       79.13       78.90    
        78.64       78.36       78.05       77.72       77.36       76.97       76.59       76.21       75.83       75.46    
        75.09       74.73       74.38       74.04       73.71       73.40       73.09       72.80       72.53       72.26    
        72.02       71.79       71.57       71.37       71.18       71.01       70.86       70.72       70.59       70.48    
        70.38       70.30       70.23       70.17       70.12       70.09       70.06       70.03       70.02       70.00    
  41  -1000.0       79.95       79.91       79.84       79.75       79.63       79.48       79.31       79.11       78.88    
        78.63       78.36       78.06       77.73       77.38       77.00       76.62       76.25       75.88       75.52    
        75.16       74.81       74.47       74.13       73.81       73.50       73.20       72.91       72.64       72.38    
        72.14       71.91       71.69       71.49       71.30       71.13       70.97       70.83       70.70       70.58    
        70.48       70.39       70.31       70.24       70.19       70.14       70.10       70.06       70.03       70.00    
  42  -1000.0     -1000.0       79.89       79.82       79.72       79.60       79.45       79.28       79.09       78.87    
        78.62       78.35       78.06       77.74       77.39       77.02       76.66       76.29       75.93       75.57    
        75.22       74.88       74.54       74.21       73.90       73.59       73.30       73.01       72.74       72.49    
        72.24       72.01       71.80       71.59       71.41       71.23       71.07       70.92       70.79       70.67    
        70.56       70.47       70.38       70.30       70.24       70.18       70.13       70.08       70.04       70.00    
  43  -1000.0     -1000.0     -1000.0       79.79       79.69       79.57       79.43       79.26       79.07       78.85    
        78.61       78.35       78.06       77.75       77.41       77.04       76.68       76.32       75.97       75.62    
        75.27       74.94       74.61       74.28       73.97       73.67       73.38       73.10       72.83       72.57    
        72.33       72.10       71.89       71.68       71.49       71.32       71.16       71.01       70.87       70.75    
        70.63       70.53       70.44       70.36       70.28       70.22       70.16       70.10       70.05       70.00    
  44  -1000.0     -1000.0     -1000.0     -1000.0       79.66       79.54       79.40       79.23       79.04       78.83    
        78.60       78.34       78.06       77.75       77.42       77.06       76.71       76.35       76.00       75.66    
        75.32       74.99       74.66       74.34       74.03       73.73       73.45       73.17       72.90       72.65    
        72.41       72.18       71.96       71.76       71.57       71.39       71.23       71.08       70.94       70.81    
        70.69       70.59       70.49       70.40       70.32       70.25       70.18       70.12       70.06       70.00    
  45  -1000.0     -1000.0     -1000.0     -1000.0     -1000.0       79.50       79.36       79.20       79.02       78.81    
        78.58       78.33       78.06       77.75       77.43       77.07       76.72       76.38       76.03       75.69    
        75.35       75.03       74.70       74.39       74.08       73.79       73.50       73.23       72.96       72.71    
        72.47       72.24       72.03       71.82       71.63       71.45       71.29       71.13       70.99       70.86    
        70.74       70.63       70.53       70.44       70.35       70.27       70.20       70.13       70.07       70.00    
  46  -1000.0     -1000.0     -1000.0     -1000.0     -1000.0     -1000.0       79.32       79.17       78.99       78.79    
        78.57       78.32       78.05       77.75       77.43       77.08       76.74       76.39       76.05       75.72    
        75.38       75.06       74.74       74.43       74.12       73.83       73.55       73.27       73.01       72.76    
        72.52       72.29       72.08       71.87       71.68       71.50       71.34       71.18       71.04       70.90    
        70.78       70.67       70.56       70.47       70.38       70.29       70.22       70.14       70.07       70.00    
  47  -1000.0     -1000.0     -1000.0     -1000.0     -1000.0     -1000.0     -1000.0       79.13       78.95       78.76    
        78.55       78.31       78.05       77.75       77.43       77.09       76.75       76.41       76.07       75.73    
        75.41       75.08       74.76       74.46       74.15       73.86       73.58       73.31       73.05       72.80    
        72.56       72.33       72.11       71.91       71.72       71.54       71.37       71.21       71.07       70.93    
        70.81       70.69       70.59       70.49       70.39       70.31       70.23       70.15       70.07       70.00    
  48  -1000.0     -1000.0     -1000.0     -1000.0     -1000.0     -1000.0     -1000.0     -1000.0       78.92       78.73    
        78.53       78.30       78.04       77.75       77.44       77.09       76.75       76.42       76.08       75.75    
        75.42       75.10       74.78       74.47       74.17       73.88       73.60       73.33       73.07       72.82    
        72.58       72.35       72.14       71.93       71.74       71.56       71.39       71.24       71.09       70.95    
        70.83       70.71       70.60       70.50       70.41       70.32       70.23       70.15       70.08       70.00    
  49  -1000.0     -1000.0     -1000.0     -1000.0     -1000.0     -1000.0     -1000.0     -1000.0     -1000.0       78.70    
        78.52       78.29       78.04       77.75       77.44       77.10       76.76       76.42       76.08       75.75    
        75.43       75.11       74.79       74.48       74.18       73.89       73.61       73.34       73.08       72.83    
        72.59       72.37       72.15       71.95       71.75       71.57       71.41       71.25       71.10       70.96    
        70.84       70.72       70.61       70.51       70.41       70.32       70.24       70.16       70.08       70.00    
  50  -1000.0     -1000.0     -1000.0     -1000.0     -1000.0     -1000.0     -1000.0     -1000.0     -1000.0     -1000.0    
      -1000.0     -1000.0     -1000.0     -1000.0     -1000.0     -1000.0     -1000.0     -1000.0     -1000.0     -1000.0    
      -1000.0     -1000.0     -1000.0     -1000.0     -1000.0     -1000.0     -1000.0     -1000.0     -1000.0     -1000.0    
      -1000.0     -1000.0     -1000.0     -1000.0     -1000.0     -1000.0     -1000.0     -1000.0     -1000.0     -1000.0    
      -1000.0     -1000.0     -1000.0     -1000.0     -1000.0     -1000.0     -1000.0     -1000.0     -1000.0       70.00    

 HEAD WILL BE SAVED ON UNIT   51 AT END OF TIME STEP    1, STRESS PERIOD    1

 DRAWDOWN WILL BE SAVED ON UNIT   52 AT END OF TIME STEP    1, STRESS PERIOD    1
1
  VOLUMETRIC BUDGET FOR ENTIRE MODEL AT END OF TIME STEP    1, STRESS PERIOD   1
  ------------------------------------------------------------------------------

     CUMULATIVE VOLUMES      L**3       RATES FOR THIS TIME STEP      L**3/T
     ------------------                 ------------------------

           IN:                                      IN:
           ---                                      ---
             STORAGE =           0.0000               STORAGE =           0.0000
       CONSTANT HEAD =        3046.4451         CONSTANT HEAD =        3046.4451
               WELLS =         375.0000                 WELLS =         375.0000
       RIVER LEAKAGE =        6000.0000         RIVER LEAKAGE =        6000.0000
                  ET =           0.0000                    ET =           0.0000
            RECHARGE =        6520.0000              RECHARGE =        6520.0000

            TOTAL IN =       15941.4453              TOTAL IN =       15941.4453

          OUT:                                     OUT:
          ----                                     ----
             STORAGE =           0.0000               STORAGE =           0.0000
       CONSTANT HEAD =         381.0185         CONSTANT HEAD =         381.0185
               WELLS =        1500.0000                 WELLS =        1500.0000
       RIVER LEAKAGE =           0.0000         RIVER LEAKAGE =           0.0000
                  ET =       14060.4150                    ET =       14060.4150
            RECHARGE =           0.0000              RECHARGE =           0.0000

           TOTAL OUT =       15941.4336             TOTAL OUT =       15941.4336

            IN - OUT =       1.1719E-02              IN - OUT =       1.1719E-02

 PERCENT DISCREPANCY =           0.00     PERCENT DISCREPANCY =           0.00






         TIME SUMMARY AT END OF TIME STEP    1 IN STRESS PERIOD    1
                    SECONDS     MINUTES      HOURS       DAYS        YEARS
                    -----------------------------------------------------------
   TIME STEP LENGTH  86400.      1440.0      24.000      1.0000     2.73785E-03
 STRESS PERIOD TIME  86400.      1440.0      24.000      1.0000     2.73785E-03
         TOTAL TIME  86400.      1440.0      24.000      1.0000     2.73785E-03
1

 Run end date and time (yyyy/mm/dd hh:mm:ss): 2026/02/25  4:01:33
 Elapsed run time: 11.082 Seconds

