                                  MODFLOW-2005     
      U.S. GEOLOGICAL SURVEY MODULAR FINITE-DIFFERENCE GROUND-WATER FLOW MODEL
                            VERSION 1.12.00 2/3/2017

 LIST FILE: static_ensemble_1133111.list
                         UNIT    2

 OPENING static_ensemble_1133111.dis
 FILE TYPE:DIS   UNIT   11   STATUS:OLD    
 FORMAT:FORMATTED              ACCESS:SEQUENTIAL          

 OPENING static_ensemble_1133111.bas
 FILE TYPE:BAS6   UNIT   13   STATUS:OLD    
 FORMAT:FORMATTED              ACCESS:SEQUENTIAL          

 OPENING static_ensemble_1133111.lpf
 FILE TYPE:LPF   UNIT   15   STATUS:OLD    
 FORMAT:FORMATTED              ACCESS:SEQUENTIAL          

 OPENING static_ensemble_1133111.evt
 FILE TYPE:EVT   UNIT   22   STATUS:OLD    
 FORMAT:FORMATTED              ACCESS:SEQUENTIAL          

 OPENING static_ensemble_1133111.rch
 FILE TYPE:RCH   UNIT   19   STATUS:OLD    
 FORMAT:FORMATTED              ACCESS:SEQUENTIAL          

 OPENING static_ensemble_1133111.riv
 FILE TYPE:RIV   UNIT   18   STATUS:OLD    
 FORMAT:FORMATTED              ACCESS:SEQUENTIAL          

 OPENING static_ensemble_1133111.wel
 FILE TYPE:WEL   UNIT   20   STATUS:OLD    
 FORMAT:FORMATTED              ACCESS:SEQUENTIAL          

 OPENING static_ensemble_1133111.oc
 FILE TYPE:OC   UNIT   14   STATUS:OLD    
 FORMAT:FORMATTED              ACCESS:SEQUENTIAL          

 OPENING static_ensemble_1133111.pcg
 FILE TYPE:PCG   UNIT   27   STATUS:OLD    
 FORMAT:FORMATTED              ACCESS:SEQUENTIAL          

 OPENING static_ensemble_1133111.cbc
 FILE TYPE:DATA(BINARY)   UNIT   53   STATUS:REPLACE
 FORMAT:UNFORMATTED            ACCESS:STREAM              

 OPENING static_ensemble_1133111.hds
 FILE TYPE:DATA(BINARY)   UNIT   51   STATUS:REPLACE
 FORMAT:UNFORMATTED            ACCESS:STREAM              

 OPENING static_ensemble_1133111.ddn
 FILE TYPE:DATA(BINARY)   UNIT   52   STATUS:REPLACE
 FORMAT:UNFORMATTED            ACCESS:STREAM              

 BAS -- BASIC PACKAGE, VERSION 7, 5/2/2005 INPUT READ FROM UNIT   13
 
 MODFLOW was compiled using mixed precision
 Precision of REAL variables:           6
 Precision of DOUBLE PRECISION variables:          15

 DISCRETIZATION INPUT DATA READ FROM UNIT   11
 # DIS package for MODFLOW-2005 generated by Flopy 3.9.5
    3 LAYERS        50 ROWS        50 COLUMNS
    1 STRESS PERIOD(S) IN SIMULATION
 MODEL TIME UNIT IS DAYS
 MODEL LENGTH UNIT IS METERS
  Confining bed flag for each layer:
   0   0   0

                     DELR =   1000.00    

                     DELC =   1000.00    



           TOP ELEVATION OF LAYER 1
 READING ON UNIT   11 WITH FORMAT: (50E15.6)           



             MODEL LAYER BOTTOM EL. FOR LAYER   1
 READING ON UNIT   11 WITH FORMAT: (50E15.6)           



             MODEL LAYER BOTTOM EL. FOR LAYER   2
 READING ON UNIT   11 WITH FORMAT: (50E15.6)           



             MODEL LAYER BOTTOM EL. FOR LAYER   3
 READING ON UNIT   11 WITH FORMAT: (50E15.6)           


 STRESS PERIOD     LENGTH       TIME STEPS     MULTIPLIER FOR DELT    SS FLAG
 ----------------------------------------------------------------------------
        1         1.000000          1                    1.000         SS

 STEADY-STATE SIMULATION



 
 # BAS6 package for MODFLOW-2005 generated by Flopy 3.9.5                        
 THE FREE FORMAT OPTION HAS BEEN SELECTED



                     BOUNDARY ARRAY FOR LAYER   1
 READING ON UNIT   13 WITH FORMAT: (50I10)             



                     BOUNDARY ARRAY FOR LAYER   2
 READING ON UNIT   13 WITH FORMAT: (50I10)             



                     BOUNDARY ARRAY FOR LAYER   3
 READING ON UNIT   13 WITH FORMAT: (50I10)             

 AQUIFER HEAD WILL BE SET TO  -999.99     AT ALL NO-FLOW NODES (IBOUND=0).



                       INITIAL HEAD FOR LAYER   1
 READING ON UNIT   13 WITH FORMAT: (50E15.6)           



                       INITIAL HEAD FOR LAYER   2
 READING ON UNIT   13 WITH FORMAT: (50E15.6)           



                       INITIAL HEAD FOR LAYER   3
 READING ON UNIT   13 WITH FORMAT: (50E15.6)           
 # OC package for MODFLOW-2005 generated by Flopy 3.9.5

 OUTPUT CONTROL IS SPECIFIED ONLY AT TIME STEPS FOR WHICH OUTPUT IS DESIRED
 COMPACT CELL-BY-CELL BUDGET FILES WILL BE WRITTEN
 AUXILIARY DATA WILL BE SAVED IN CELL-BY-CELL BUDGET FILES
 HEAD PRINT FORMAT CODE IS   0    DRAWDOWN PRINT FORMAT CODE IS   0
 HEADS WILL BE SAVED ON UNIT   51    DRAWDOWNS WILL BE SAVED ON UNIT   52

 LPF -- LAYER-PROPERTY FLOW PACKAGE, VERSION 7, 5/2/2005
         INPUT READ FROM UNIT   15
 # LPF package for MODFLOW-2005 generated by Flopy 3.9.5
 CELL-BY-CELL FLOWS WILL BE SAVED ON UNIT   53
 HEAD AT CELLS THAT CONVERT TO DRY= -1.00000E+30
 No named parameters
 STORAGECOEFFICIENT OPTION:
 Read storage coefficient rather than specific storage

   LAYER FLAGS:
 LAYER       LAYTYP        LAYAVG         CHANI        LAYVKA        LAYWET
 ---------------------------------------------------------------------------
    1             1             0     1.000E+00             0             0
    2             1             0     1.000E+00             0             0
    3             1             0     1.000E+00             0             0

   INTERPRETATION OF LAYER FLAGS:
                        INTERBLOCK     HORIZONTAL    DATA IN
         LAYER TYPE   TRANSMISSIVITY   ANISOTROPY   ARRAY VKA   WETTABILITY
 LAYER      (LAYTYP)      (LAYAVG)       (CHANI)      (LAYVKA)      (LAYWET)
 ---------------------------------------------------------------------------
    1   CONVERTIBLE      HARMONIC     1.000E+00    VERTICAL K  NON-WETTABLE
    2   CONVERTIBLE      HARMONIC     1.000E+00    VERTICAL K  NON-WETTABLE
    3   CONVERTIBLE      HARMONIC     1.000E+00    VERTICAL K  NON-WETTABLE

 WETTING CAPABILITY IS NOT ACTIVE IN ANY LAYER



              HYD. COND. ALONG ROWS FOR LAYER   1
 READING ON UNIT   15 WITH FORMAT: (50E15.6)           



                VERTICAL HYD. COND. FOR LAYER   1
 READING ON UNIT   15 WITH FORMAT: (50E15.6)           



              HYD. COND. ALONG ROWS FOR LAYER   2
 READING ON UNIT   15 WITH FORMAT: (50E15.6)           



                VERTICAL HYD. COND. FOR LAYER   2
 READING ON UNIT   15 WITH FORMAT: (50E15.6)           



              HYD. COND. ALONG ROWS FOR LAYER   3
 READING ON UNIT   15 WITH FORMAT: (50E15.6)           



                VERTICAL HYD. COND. FOR LAYER   3
 READING ON UNIT   15 WITH FORMAT: (50E15.6)           

 WEL -- WELL PACKAGE, VERSION 7, 5/2/2005 INPUT READ FROM UNIT   20
 # WEL package for MODFLOW-2005 generated by Flopy 3.9.5
 No named parameters
 MAXIMUM OF      3 ACTIVE WELLS AT ONE TIME


     0 Well parameters

 RIV -- RIVER PACKAGE, VERSION 7, 5/2/2005 INPUT READ FROM UNIT   18
 # RIV package for MODFLOW-2005 generated by Flopy 3.9.5
 No named parameters
 MAXIMUM OF     49 ACTIVE RIVER REACHES AT ONE TIME
 CELL-BY-CELL FLOWS WILL BE SAVED ON UNIT   53


     0 River parameters

 EVT -- EVAPOTRANSPIRATION PACKAGE, VERSION 7, 5/2/2005
         INPUT READ FROM UNIT   22
 # EVT package for MODFLOW-2005 generated by Flopy 3.9.5
 No named parameters
 OPTION 3 -- EVAPOTRANSPIRATION FROM HIGHEST ACTIVE NODE IN EACH VERTICAL COLUMN
 CELL-BY-CELL FLOWS WILL BE SAVED ON UNIT   53


     0 Evapotranspiration parameters

 RCH -- RECHARGE PACKAGE, VERSION 7, 5/2/2005 INPUT READ FROM UNIT   19
 # RCH package for MODFLOW-2005 generated by Flopy 3.9.5
 No named parameters
 OPTION 3 -- RECHARGE TO HIGHEST ACTIVE NODE IN EACH VERTICAL COLUMN
 CELL-BY-CELL FLOWS WILL BE SAVED ON UNIT   53


     0 Recharge parameters

 PCG -- CONJUGATE-GRADIENT SOLUTION PACKAGE, VERSION 7, 5/2/2005
 # PCG package for MODFLOW-2005 generated by Flopy 3.9.5
 MAXIMUM OF   5000 CALLS OF SOLUTION ROUTINE
 MAXIMUM OF    500 INTERNAL ITERATIONS PER CALL TO SOLUTION ROUTINE
 MATRIX PRECONDITIONING TYPE :    1



                                    SOLUTION BY THE CONJUGATE-GRADIENT METHOD
                                   -------------------------------------------
                    MAXIMUM NUMBER OF CALLS TO PCG ROUTINE =     5000
                        MAXIMUM ITERATIONS PER CALL TO PCG =      500
                               MATRIX PRECONDITIONING TYPE =        1
        RELAXATION FACTOR (ONLY USED WITH PRECOND. TYPE 1) =    0.97000E+00
 PARAMETER OF POLYNOMIAL PRECOND. = 2 (2) OR IS CALCULATED :        0
                         HEAD CHANGE CRITERION FOR CLOSURE =    0.10000E-04
                     RESIDUAL CHANGE CRITERION FOR CLOSURE =    0.10000E-04
            PCG HEAD AND RESIDUAL CHANGE PRINTOUT INTERVAL =      999
     PRINTING FROM SOLVER IS LIMITED(1) OR SUPPRESSED (>1) =        3
                            STEADY-STATE DAMPING PARAMETER =    0.10000E-01
                               TRANSIENT DAMPING PARAMETER =    0.10000E-01
1
                            STRESS PERIOD NO.    1, LENGTH =   1.000000    
                            -----------------------------------------------

                              NUMBER OF TIME STEPS =     1

                               MULTIPLIER FOR DELT =     1.000

                            INITIAL TIME STEP SIZE =   1.000000    

 WELL NO.  LAYER   ROW   COL   STRESS RATE         
 --------------------------------------------------
      1      3     22     39      -1500.    
      2      1     13     15       0.000    
      3      1     25     26       375.0    

      3 WELLS

 REACH NO.  LAYER   ROW   COL     STAGE      CONDUCTANCE     BOTTOM EL.         
 -------------------------------------------------------------------------------
      1      1     25      2       100.5           50.00           98.00    
      2      1     25      3       99.50           50.00           97.00    
      3      1     25      4       98.50           50.00           96.00    
      4      1     25      5       97.50           50.00           95.00    
      5      1     25      6       96.50           50.00           94.00    
      6      1     25      7       95.50           50.00           93.00    
      7      1     25      8       94.50           50.00           92.00    
      8      1     25      9       93.50           50.00           91.00    
      9      1     25     10       92.50           50.00           90.00    
     10      1     25     11       91.50           50.00           89.00    
     11      1     25     12       90.50           50.00           88.00    
     12      1     25     13       89.50           50.00           87.00    
     13      1     25     14       88.50           50.00           86.00    
     14      1     25     15       87.50           50.00           85.00    
     15      1     25     16       86.50           50.00           84.00    
     16      1     25     17       85.50           50.00           83.00    
     17      1     25     18       84.50           50.00           82.00    
     18      1     25     19       83.50           50.00           81.00    
     19      1     25     20       82.50           50.00           80.00    
     20      1     25     21       81.50           50.00           79.00    
     21      1     25     22       80.50           50.00           78.00    
     22      1     25     23       79.50           50.00           77.00    
     23      1     25     24       78.50           50.00           76.00    
     24      1     25     25       77.50           50.00           75.00    
     25      1     25     26       77.40           50.00           74.90    
     26      1     25     27       77.30           50.00           74.80    
     27      1     25     28       77.20           50.00           74.70    
     28      1     25     29       77.10           50.00           74.60    
     29      1     25     30       77.00           50.00           74.50    
     30      1     25     31       76.90           50.00           74.40    
     31      1     25     32       76.80           50.00           74.30    
     32      1     25     33       76.70           50.00           74.20    
     33      1     25     34       76.60           50.00           74.10    
     34      1     25     35       76.50           50.00           74.00    
     35      1     25     36       76.40           50.00           73.90    
     36      1     25     37       76.30           50.00           73.80    
     37      1     25     38       76.20           50.00           73.70    
     38      1     25     39       76.10           50.00           73.60    
     39      1     25     40       76.00           50.00           73.50    
     40      1     25     41       75.90           50.00           73.40    
     41      1     25     42       75.80           50.00           73.30    
     42      1     25     43       75.70           50.00           73.20    
     43      1     25     44       75.60           50.00           73.10    
     44      1     25     45       75.50           50.00           73.00    
     45      1     25     46       75.40           50.00           72.90    
     46      1     25     47       75.30           50.00           72.80    
     47      1     25     48       75.20           50.00           72.70    
     48      1     25     49       75.10           50.00           72.60    
     49      1     25     50       75.00           50.00           72.50    

     49 RIVER REACHES



                         ET SURFACE
 READING ON UNIT   22 WITH FORMAT: (50E15.6)           



            EVAPOTRANSPIRATION RATE
 READING ON UNIT   22 WITH FORMAT: (50E15.6)           

         EXTINCTION DEPTH =   10.0000    



                           RECHARGE
 READING ON UNIT   19 WITH FORMAT: (50E15.6)           
 
 SOLVING FOR HEAD 

 OUTPUT CONTROL FOR STRESS PERIOD    1   TIME STEP    1
    SAVE HEAD FOR ALL LAYERS
    SAVE DRAWDOWN FOR ALL LAYERS
    SAVE BUDGET
    PRINT HEAD FOR ALL LAYERS
    PRINT BUDGET
 UBDSV2 SAVING "   CONSTANT HEAD" ON UNIT  53 AT TIME STEP  1, STRESS PERIOD   1
 UBDSV1 SAVING "FLOW RIGHT FACE " ON UNIT  53 AT TIME STEP  1, STRESS PERIOD   1
 UBDSV1 SAVING "FLOW FRONT FACE " ON UNIT  53 AT TIME STEP  1, STRESS PERIOD   1
 UBDSV1 SAVING "FLOW LOWER FACE " ON UNIT  53 AT TIME STEP  1, STRESS PERIOD   1
 UBDSV4 SAVING "   RIVER LEAKAGE" ON UNIT  53 AT TIME STEP  1, STRESS PERIOD   1
 UBDSV3 SAVING "              ET" ON UNIT  53 AT TIME STEP  1, STRESS PERIOD   1
 UBDSV3 SAVING "        RECHARGE" ON UNIT  53 AT TIME STEP  1, STRESS PERIOD   1
1
              HEAD IN LAYER   1 AT END OF TIME STEP   1 IN STRESS PERIOD    1
  ---------------------------------------------------------------------------

            1           2           3           4           5           6           7           8           9          10
           11          12          13          14          15          16          17          18          19          20
           21          22          23          24          25          26          27          28          29          30
           31          32          33          34          35          36          37          38          39          40
           41          42          43          44          45          46          47          48          49          50
 ........................................................................................................................
   1  -1000.0     -1000.0     -1000.0     -1000.0     -1000.0     -1000.0     -1000.0     -1000.0     -1000.0     -1000.0    
      -1000.0     -1000.0     -1000.0     -1000.0     -1000.0     -1000.0     -1000.0     -1000.0     -1000.0     -1000.0    
      -1000.0     -1000.0     -1000.0     -1000.0     -1000.0     -1000.0     -1000.0     -1000.0     -1000.0     -1000.0    
      -1000.0     -1000.0     -1000.0     -1000.0     -1000.0     -1000.0     -1000.0     -1000.0     -1000.0     -1000.0    
      -1000.0     -1000.0     -1000.0     -1000.0     -1000.0     -1000.0     -1000.0     -1000.0     -1000.0       70.00    
   2  -1000.0     -1000.0     -1000.0     -1000.0     -1000.0       110.0       109.8       109.3       108.8       108.2    
        107.6       107.0       106.2       105.3       104.4       103.3       102.3       101.2       100.2       99.16    
        98.18       97.21       96.24       95.27       94.30       93.33       92.37       91.41       90.46       89.51    
        88.57       87.63       86.70       85.77       84.84       83.91       82.98       82.05       81.12       80.18    
        79.24       78.28       77.32       76.35       75.36       74.35       73.31       72.25       71.15       70.00    
   3  -1000.0     -1000.0     -1000.0     -1000.0       110.4       110.1       109.8       109.3       108.8       108.2    
        107.6       107.0       106.2       105.3       104.4       103.3       102.3       101.2       100.2       99.14    
        98.17       97.19       96.22       95.25       94.28       93.31       92.35       91.39       90.44       89.49    
        88.55       87.61       86.68       85.75       84.82       83.89       82.96       82.04       81.10       80.17    
        79.22       78.27       77.31       76.34       75.35       74.34       73.31       72.24       71.14       70.00    
   4  -1000.0     -1000.0     -1000.0       110.7       110.4       110.1       109.8       109.3       108.8       108.3    
        107.7       107.0       106.2       105.3       104.3       103.3       102.2       101.2       100.1       99.11    
        98.13       97.16       96.18       95.21       94.24       93.27       92.31       91.35       90.40       89.45    
        88.51       87.58       86.64       85.71       84.79       83.86       82.93       82.01       81.08       80.14    
        79.20       78.25       77.30       76.32       75.34       74.33       73.30       72.24       71.14       70.00    
   5  -1000.0     -1000.0       110.9       110.7       110.5       110.1       109.7       109.3       108.8       108.3    
        107.7       106.9       106.2       105.3       104.3       103.3       102.2       101.1       100.1       99.06    
        98.08       97.11       96.13       95.15       94.18       93.21       92.25       91.29       90.34       89.39    
        88.45       87.52       86.59       85.66       84.74       83.81       82.89       81.96       81.04       80.11    
        79.17       78.22       77.27       76.30       75.32       74.31       73.29       72.23       71.14       70.00    
   6  -1000.0       111.0       110.9       110.7       110.4       110.1       109.7       109.3       108.8       108.3    
        107.6       106.9       106.1       105.2       104.3       103.2       102.1       101.1       100.0       99.00    
        98.02       97.04       96.06       95.08       94.10       93.13       92.17       91.21       90.26       89.31    
        88.37       87.44       86.51       85.59       84.67       83.75       82.83       81.91       80.98       80.06    
        79.12       78.18       77.23       76.27       75.29       74.29       73.27       72.22       71.13       70.00    
   7  -1000.0       111.0       110.9       110.7       110.4       110.1       109.7       109.3       108.8       108.2    
        107.6       106.9       106.1       105.2       104.2       103.1       102.1       101.0       99.96       98.92    
        97.93       96.95       95.97       94.99       94.01       93.03       92.06       91.11       90.15       89.21    
        88.28       87.35       86.42       85.50       84.58       83.67       82.75       81.84       80.92       80.00    
        79.07       78.13       77.19       76.23       75.26       74.26       73.25       72.20       71.12       70.00    
   8  -1000.0       110.9       110.8       110.6       110.3       110.0       109.7       109.3       108.8       108.2    
        107.5       106.8       106.0       105.1       104.1       103.0       102.0       100.9       99.87       98.82    
        97.83       96.84       95.86       94.87       93.89       92.91       91.94       90.98       90.03       89.09    
        88.16       87.23       86.31       85.39       84.48       83.57       82.66       81.75       80.84       79.92    
        79.00       78.07       77.14       76.18       75.22       74.23       73.22       72.19       71.11       70.00    
   9  -1000.0       110.8       110.7       110.5       110.3       110.0       109.6       109.2       108.7       108.1    
        107.5       106.7       105.9       105.0       104.0       102.9       101.9       100.8       99.75       98.70    
        97.71       96.72       95.73       94.74       93.74       92.76       91.79       90.83       89.89       88.95    
        88.02       87.09       86.18       85.26       84.36       83.45       82.55       81.65       80.74       79.84    
        78.92       78.00       77.07       76.13       75.17       74.20       73.20       72.17       71.10       70.00    
  10  -1000.0       110.6       110.6       110.4       110.2       109.9       109.5       109.1       108.6       108.0    
        107.4       106.6       105.8       104.9       103.9       102.8       101.7       100.7       99.62       98.57    
        97.57       96.57       95.58       94.58       93.58       92.59       91.62       90.66       89.72       88.78    
        87.85       86.94       86.02       85.12       84.22       83.32       82.43       81.53       80.64       79.74    
        78.84       77.92       77.00       76.07       75.12       74.15       73.16       72.14       71.09       70.00    
  11  -1000.0       110.5       110.5       110.3       110.1       109.8       109.4       109.0       108.5       107.9    
        107.3       106.5       105.7       104.8       103.8       102.7       101.6       100.5       99.47       98.41    
        97.41       96.41       95.41       94.40       93.40       92.40       91.42       90.47       89.52       88.59    
        87.67       86.76       85.85       84.95       84.06       83.17       82.29       81.40       80.52       79.63    
        78.74       77.84       76.93       76.00       75.06       74.11       73.13       72.12       71.08       70.00    
  12  -1000.0       110.4       110.3       110.2       110.0       109.7       109.3       108.9       108.4       107.8    
        107.1       106.4       105.5       104.6       103.6       102.5       101.4       100.4       99.29       98.24    
        97.23       96.22       95.21       94.20       93.19       92.19       91.20       90.25       89.30       88.38    
        87.46       86.56       85.66       84.77       83.89       83.01       82.13       81.26       80.38       79.51    
        78.63       77.74       76.84       75.93       75.00       74.06       73.09       72.09       71.07       70.00    
  13  -1000.0       110.3       110.2       110.0       109.8       109.5       109.2       108.7       108.2       107.6    
        107.0       106.2       105.4       104.4       103.4       102.3       101.2       100.2       99.10       98.04    
        97.02       96.01       94.99       93.98       92.96       91.95       90.96       90.00       89.06       88.14    
        87.23       86.33       85.44       84.56       83.69       82.82       81.96       81.10       80.24       79.37    
        78.51       77.63       76.75       75.85       74.94       74.00       73.05       72.07       71.05       70.00    
  14  -1000.0       110.1       110.0       109.9       109.7       109.4       109.0       108.6       108.0       107.4    
        106.8       106.0       105.2       104.2       103.2       102.1       101.0       99.94       98.88       97.82    
        96.79       95.77       94.75       93.72       92.70       91.69       90.70       89.74       88.79       87.87    
        86.97       86.08       85.21       84.34       83.48       82.62       81.77       80.92       80.08       79.23    
        78.38       77.52       76.65       75.76       74.87       73.95       73.01       72.04       71.04       70.00    
  15  -1000.0       109.9       109.8       109.7       109.5       109.2       108.8       108.4       107.8       107.2    
        106.6       105.8       104.9       104.0       103.0       101.9       100.8       99.70       98.63       97.57    
        96.54       95.51       94.48       93.44       92.42       91.40       90.41       89.44       88.50       87.59    
        86.69       85.81       84.95       84.09       83.24       82.40       81.57       80.74       79.91       79.07    
        78.24       77.39       76.54       75.67       74.79       73.89       72.96       72.01       71.02       70.00    
  16  -1000.0       109.7       109.6       109.5       109.3       109.0       108.6       108.1       107.6       107.0    
        106.3       105.5       104.7       103.8       102.7       101.6       100.5       99.43       98.36       97.30    
        96.26       95.21       94.17       93.13       92.10       91.08       90.08       89.12       88.18       87.27    
        86.38       85.51       84.66       83.82       82.99       82.17       81.35       80.54       79.72       78.91    
        78.09       77.27       76.43       75.58       74.72       73.83       72.92       71.98       71.01       70.00    
  17  -1000.0       109.5       109.4       109.2       109.0       108.7       108.3       107.9       107.4       106.7    
        106.0       105.3       104.4       103.5       102.4       101.3       100.2       99.13       98.06       97.01    
        95.95       94.89       93.83       92.79       91.74       90.72       89.73       88.77       87.83       86.93    
        86.05       85.19       84.35       83.53       82.71       81.91       81.11       80.32       79.53       78.74    
        77.94       77.13       76.32       75.49       74.65       73.78       72.88       71.95       71.00       70.00    
  18  -1000.0       109.2       109.1       109.0       108.8       108.5       108.1       107.6       107.1       106.4    
        105.7       105.0       104.1       103.2       102.1       101.0       99.89       98.81       97.74       96.68    
        95.60       94.52       93.45       92.40       91.35       90.32       89.33       88.37       87.45       86.55    
        85.68       84.84       84.01       83.21       82.42       81.64       80.86       80.09       79.32       78.55    
        77.78       77.00       76.21       75.40       74.58       73.72       72.84       71.93       70.99       70.00    
  19  -1000.0       108.9       108.9       108.7       108.5       108.2       107.8       107.3       106.8       106.1    
        105.4       104.6       103.8       102.8       101.8       100.6       99.53       98.45       97.38       96.33    
        95.22       94.12       93.03       91.96       90.90       89.87       88.89       87.94       87.02       86.14    
        85.29       84.46       83.65       82.87       82.10       81.34       80.59       79.85       79.11       78.37    
        77.62       76.87       76.10       75.32       74.51       73.68       72.82       71.92       70.98       70.00    
  20  -1000.0       108.7       108.6       108.4       108.2       107.9       107.5       107.0       106.4       105.8    
        105.1       104.3       103.4       102.4       101.4       100.2       99.14       98.05       96.98       95.94    
        94.79       93.66       92.54       91.46       90.40       89.37       88.39       87.45       86.55       85.68    
        84.85       84.04       83.26       82.50       81.76       81.03       80.31       79.60       78.89       78.18    
        77.46       76.74       76.00       75.25       74.47       73.65       72.81       71.91       70.98       70.00    
  21  -1000.0       108.3       108.3       108.1       107.8       107.5       107.1       106.6       106.0       105.4    
        104.7       103.9       103.0       102.0       101.0       99.82       98.71       97.62       96.55       95.51    
        94.31       93.13       91.99       90.89       89.82       88.80       87.83       86.91       86.02       85.18    
        84.37       83.59       82.84       82.11       81.40       80.70       80.01       79.33       78.66       77.98    
        77.30       76.61       75.91       75.19       74.44       73.65       72.81       71.93       70.99       70.00    
  22  -1000.0       108.0       107.9       107.8       107.5       107.1       106.7       106.2       105.6       105.0    
        104.2       103.4       102.5       101.5       100.5       99.34       98.23       97.14       96.08       95.05    
        93.76       92.52       91.34       90.22       89.17       88.17       87.21       86.29       85.43       84.61    
        83.84       83.09       82.38       81.68       81.01       80.35       79.70       79.06       78.42       77.79    
        77.15       76.50       75.83       75.15       74.43       73.67       72.86       71.98       71.02       70.00    
  23  -1000.0       107.7       107.6       107.4       107.1       106.7       106.3       105.8       105.2       104.5    
        103.7       102.9       102.0       101.0       99.97       98.83       97.71       96.63       95.57       94.55    
        93.13       91.79       90.56       89.44       88.41       87.45       86.50       85.60       84.76       83.98    
        83.24       82.54       81.87       81.22       80.59       79.98       79.37       78.78       78.18       77.59    
        77.00       76.39       75.78       75.13       74.46       73.74       72.95       72.07       71.09       70.00    
  24  -1000.0       107.3       107.2       107.0       106.7       106.3       105.9       105.3       104.7       104.0    
        103.2       102.4       101.5       100.5       99.42       98.27       97.15       96.07       95.01       94.00    
        92.35       90.89       89.62       88.49       87.52       86.70       85.70       84.80       84.00       83.26    
        82.58       81.93       81.32       80.72       80.14       79.58       79.03       78.48       77.94       77.40    
        76.85       76.30       75.74       75.15       74.53       73.86       73.11       72.25       71.22       70.00    
  25  -1000.0       107.0       106.9       106.6       106.3       105.9       105.4       104.8       104.2       103.4    
        102.7       101.8       100.9       99.88       98.81       97.66       96.54       95.45       94.40       93.39    
        91.30       89.74       88.44       87.31       86.43       86.06       84.76       83.85       83.11       82.44    
        81.83       81.25       80.70       80.17       79.66       79.15       78.66       78.17       77.69       77.20    
        76.72       76.23       75.72       75.20       74.65       74.05       73.39       72.58       71.51       70.00    
  26  -1000.0       107.4       107.3       107.1       106.8       106.4       105.9       105.4       104.7       104.0    
        103.3       102.4       101.5       100.5       99.45       98.30       97.19       96.10       95.05       94.04    
        92.37       90.91       89.63       88.51       87.54       86.71       85.71       84.81       84.00       83.27    
        82.59       81.94       81.32       80.73       80.16       79.59       79.04       78.49       77.95       77.41    
        76.86       76.31       75.74       75.15       74.53       73.86       73.12       72.25       71.22       70.00    
  27  -1000.0       107.8       107.7       107.5       107.2       106.8       106.4       105.9       105.3       104.6    
        103.8       103.0       102.1       101.1       100.1       98.91       97.79       96.70       95.65       94.62    
        93.19       91.85       90.62       89.49       88.46       87.50       86.55       85.64       84.80       84.02    
        83.28       82.58       81.91       81.26       80.63       80.01       79.41       78.81       78.21       77.62    
        77.02       76.41       75.79       75.14       74.47       73.74       72.95       72.07       71.09       70.00    
  28  -1000.0       108.2       108.1       107.9       107.6       107.3       106.8       106.3       105.8       105.1    
        104.4       103.5       102.6       101.7       100.6       99.46       98.34       97.26       96.19       95.16    
        93.87       92.62       91.43       90.31       89.25       88.25       87.28       86.37       85.50       84.68    
        83.90       83.15       82.44       81.74       81.06       80.40       79.75       79.11       78.46       77.82    
        77.18       76.53       75.86       75.17       74.45       73.68       72.87       71.98       71.02       70.00    
  29  -1000.0       108.5       108.4       108.3       108.0       107.7       107.3       106.8       106.2       105.6    
        104.8       104.0       103.1       102.2       101.1       99.97       98.85       97.76       96.70       95.66    
        94.45       93.26       92.11       91.01       89.94       88.91       87.94       87.00       86.11       85.27    
        84.45       83.67       82.92       82.18       81.47       80.77       80.08       79.39       78.71       78.03    
        77.35       76.66       75.95       75.22       74.46       73.67       72.83       71.94       71.00       70.00    
  30  -1000.0       108.9       108.8       108.6       108.4       108.1       107.7       107.2       106.6       106.0    
        105.3       104.5       103.6       102.6       101.6       100.4       99.32       98.23       97.16       96.11    
        94.96       93.82       92.70       91.61       90.54       89.51       88.52       87.57       86.66       85.79    
        84.95       84.14       83.36       82.59       81.84       81.11       80.38       79.67       78.95       78.24    
        77.52       76.79       76.05       75.29       74.50       73.68       72.83       71.93       70.99       70.00    
  31  -1000.0       109.2       109.1       109.0       108.7       108.4       108.0       107.6       107.0       106.4    
        105.7       104.9       104.0       103.0       102.0       100.9       99.75       98.66       97.58       96.53    
        95.41       94.31       93.21       92.13       91.07       90.03       89.03       88.08       87.15       86.26    
        85.40       84.57       83.76       82.97       82.19       81.43       80.68       79.93       79.19       78.44    
        77.69       76.94       76.16       75.37       74.56       73.72       72.85       71.94       70.99       70.00    
  32  -1000.0       109.5       109.4       109.3       109.0       108.7       108.4       107.9       107.4       106.7    
        106.0       105.2       104.4       103.4       102.4       101.2       100.1       99.04       97.97       96.91    
        95.82       94.74       93.66       92.59       91.54       90.50       89.50       88.53       87.60       86.69    
        85.81       84.96       84.13       83.31       82.52       81.73       80.95       80.18       79.41       78.64    
        77.87       77.08       76.28       75.46       74.63       73.77       72.88       71.95       71.00       70.00    
  33  -1000.0       109.8       109.7       109.6       109.3       109.0       108.7       108.2       107.7       107.1    
        106.4       105.6       104.7       103.8       102.7       101.6       100.5       99.40       98.32       97.26    
        96.19       95.13       94.06       93.00       91.95       90.92       89.91       88.94       88.00       87.08    
        86.19       85.32       84.47       83.64       82.82       82.02       81.22       80.42       79.63       78.83    
        78.03       77.22       76.40       75.56       74.70       73.82       72.92       71.98       71.01       70.00    
  34  -1000.0       110.0       110.0       109.8       109.6       109.3       108.9       108.5       108.0       107.3    
        106.7       105.9       105.0       104.1       103.0       101.9       100.8       99.72       98.64       97.58    
        96.53       95.47       94.42       93.37       92.32       91.29       90.28       89.31       88.36       87.43    
        86.53       85.65       84.79       83.94       83.11       82.29       81.47       80.65       79.84       79.02    
        78.19       77.36       76.52       75.66       74.78       73.89       72.96       72.01       71.02       70.00    
  35  -1000.0       110.3       110.2       110.1       109.8       109.6       109.2       108.7       108.2       107.6    
        106.9       106.1       105.3       104.4       103.3       102.2       101.1       100.0       98.94       97.87    
        96.83       95.79       94.74       93.70       92.66       91.63       90.62       89.64       88.69       87.76    
        86.85       85.95       85.08       84.22       83.38       82.54       81.70       80.87       80.03       79.19    
        78.35       77.50       76.64       75.76       74.87       73.95       73.01       72.04       71.04       70.00    
  36  -1000.0       110.5       110.4       110.3       110.1       109.8       109.4       109.0       108.4       107.8    
        107.2       106.4       105.5       104.6       103.6       102.5       101.4       100.3       99.20       98.14    
        97.11       96.07       95.03       94.00       92.96       91.93       90.93       89.94       88.99       88.05    
        87.13       86.24       85.36       84.49       83.62       82.77       81.92       81.06       80.21       79.36    
        78.50       77.63       76.75       75.86       74.95       74.01       73.06       72.07       71.06       70.00    
  37  -1000.0       110.7       110.6       110.5       110.3       110.0       109.6       109.2       108.6       108.0    
        107.4       106.6       105.8       104.8       103.8       102.7       101.6       100.5       99.44       98.38    
        97.35       96.32       95.30       94.26       93.23       92.20       91.20       90.22       89.26       88.32    
        87.40       86.50       85.61       84.73       83.85       82.98       82.12       81.25       80.38       79.51    
        78.64       77.75       76.86       75.95       75.02       74.08       73.11       72.11       71.07       70.00    
  38  -1000.0       110.8       110.8       110.6       110.4       110.1       109.8       109.3       108.8       108.2    
        107.6       106.8       106.0       105.0       104.0       102.9       101.8       100.7       99.66       98.60    
        97.58       96.55       95.53       94.50       93.47       92.45       91.45       90.47       89.51       88.57    
        87.65       86.74       85.84       84.95       84.06       83.18       82.30       81.42       80.54       79.66    
        78.77       77.87       76.96       76.04       75.10       74.14       73.15       72.14       71.09       70.00    
  39  -1000.0       111.0       110.9       110.8       110.6       110.3       109.9       109.5       109.0       108.4    
        107.7       107.0       106.1       105.2       104.2       103.1       102.0       100.9       99.85       98.79    
        97.78       96.76       95.74       94.72       93.69       92.68       91.68       90.70       89.74       88.80    
        87.88       86.96       86.05       85.15       84.25       83.36       82.47       81.58       80.69       79.79    
        78.89       77.98       77.05       76.12       75.16       74.19       73.19       72.17       71.10       70.00    
  40  -1000.0       111.1       111.0       110.9       110.7       110.4       110.0       109.6       109.1       108.5    
        107.8       107.1       106.3       105.4       104.3       103.3       102.2       101.1       100.0       98.96    
        97.95       96.94       95.93       94.91       93.89       92.88       91.88       90.91       89.95       89.01    
        88.08       87.16       86.24       85.33       84.43       83.52       82.62       81.72       80.82       79.91    
        79.00       78.07       77.14       76.19       75.23       74.24       73.23       72.19       71.12       70.00    
  41  -1000.0       111.2       111.2       111.0       110.8       110.5       110.1       109.7       109.2       108.6    
        108.0       107.2       106.4       105.5       104.5       103.4       102.3       101.2       100.2       99.11    
        98.11       97.10       96.09       95.08       94.07       93.06       92.07       91.10       90.14       89.20    
        88.26       87.33       86.41       85.49       84.58       83.67       82.76       81.85       80.94       80.02    
        79.10       78.16       77.22       76.26       75.28       74.29       73.27       72.22       71.13       70.00    
  42  -1000.0       111.4       111.2       111.1       110.9       110.6       110.2       109.8       109.3       108.7    
        108.1       107.3       106.5       105.6       104.6       103.5       102.4       101.4       100.3       99.25    
        98.25       97.25       96.24       95.23       94.23       93.22       92.24       91.27       90.31       89.36    
        88.42       87.49       86.56       85.64       84.72       83.80       82.88       81.96       81.04       80.12    
        79.18       78.24       77.29       76.32       75.34       74.33       73.30       72.24       71.14       70.00    
  43  -1000.0       111.5       111.4       111.2       110.9       110.6       110.3       109.9       109.4       108.8    
        108.1       107.4       106.6       105.7       104.7       103.6       102.5       101.5       100.4       99.36    
        98.36       97.37       96.37       95.37       94.36       93.37       92.39       91.42       90.46       89.51    
        88.56       87.62       86.69       85.76       84.84       83.91       82.99       82.06       81.14       80.20    
        79.26       78.31       77.35       76.37       75.38       74.37       73.33       72.26       71.15       70.00    
  44  -1000.0       111.6       111.5       111.3       111.0       110.7       110.3       109.9       109.4       108.8    
        108.2       107.5       106.6       105.8       104.8       103.7       102.6       101.6       100.5       99.46    
        98.46       97.47       96.47       95.48       94.48       93.49       92.51       91.54       90.58       89.63    
        88.68       87.74       86.80       85.87       84.94       84.01       83.08       82.15       81.21       80.27    
        79.33       78.37       77.40       76.42       75.42       74.40       73.35       72.28       71.16       70.00    
  45  -1000.0       111.6       111.5       111.3       111.0       110.7       110.3       109.9       109.4       108.8    
        108.2       107.5       106.7       105.8       104.8       103.8       102.7       101.6       100.6       99.53    
        98.55       97.55       96.56       95.57       94.58       93.60       92.62       91.65       90.69       89.73    
        88.78       87.84       86.90       85.96       85.02       84.09       83.16       82.22       81.28       80.33    
        79.38       78.42       77.45       76.46       75.45       74.43       73.37       72.29       71.17       70.00    
  46  -1000.0     -1000.0       111.5       111.3       111.1       110.7       110.3       109.9       109.4       108.9    
        108.2       107.5       106.7       105.8       104.9       103.8       102.8       101.7       100.6       99.60    
        98.61       97.62       96.63       95.65       94.66       93.68       92.70       91.73       90.77       89.81    
        88.86       87.91       86.97       86.03       85.09       84.15       83.22       82.28       81.33       80.38    
        79.43       78.46       77.48       76.49       75.48       74.45       73.39       72.30       71.17       70.00    
  47  -1000.0     -1000.0     -1000.0       111.2       111.0       110.7       110.3       109.9       109.4       108.8    
        108.2       107.5       106.7       105.9       104.9       103.8       102.8       101.7       100.7       99.64    
        98.66       97.67       96.69       95.70       94.72       93.74       92.76       91.79       90.83       89.87    
        88.92       87.97       87.03       86.08       85.14       84.20       83.26       82.32       81.37       80.42    
        79.46       78.49       77.51       76.51       75.50       74.46       73.40       72.31       71.18       70.00    
  48  -1000.0     -1000.0     -1000.0     -1000.0       110.9       110.7       110.3       109.9       109.3       108.8    
        108.2       107.5       106.8       105.9       104.9       103.9       102.8       101.8       100.7       99.67    
        98.69       97.71       96.72       95.74       94.76       93.78       92.80       91.83       90.87       89.91    
        88.96       88.01       87.06       86.12       85.18       84.23       83.29       82.35       81.40       80.44    
        79.48       78.51       77.53       76.53       75.51       74.47       73.41       72.32       71.18       70.00    
  49  -1000.0     -1000.0     -1000.0     -1000.0     -1000.0       110.6       110.3       109.9       109.4       108.8    
        108.2       107.5       106.8       105.9       104.9       103.9       102.8       101.8       100.7       99.69    
        98.71       97.72       96.74       95.76       94.78       93.80       92.82       91.85       90.89       89.93    
        88.98       88.03       87.08       86.14       85.19       84.25       83.31       82.36       81.41       80.45    
        79.49       78.52       77.53       76.54       75.52       74.48       73.42       72.32       71.18       70.00    
  50  -1000.0     -1000.0     -1000.0     -1000.0     -1000.0     -1000.0     -1000.0     -1000.0     -1000.0     -1000.0    
      -1000.0     -1000.0     -1000.0     -1000.0     -1000.0     -1000.0     -1000.0     -1000.0     -1000.0     -1000.0    
      -1000.0     -1000.0     -1000.0     -1000.0     -1000.0     -1000.0     -1000.0     -1000.0     -1000.0     -1000.0    
      -1000.0     -1000.0     -1000.0     -1000.0     -1000.0     -1000.0     -1000.0     -1000.0     -1000.0     -1000.0    
      -1000.0     -1000.0     -1000.0     -1000.0     -1000.0     -1000.0     -1000.0     -1000.0     -1000.0       70.00    
1
              HEAD IN LAYER   2 AT END OF TIME STEP   1 IN STRESS PERIOD    1
  ---------------------------------------------------------------------------

            1           2           3           4           5           6           7           8           9          10
           11          12          13          14          15          16          17          18          19          20
           21          22          23          24          25          26          27          28          29          30
           31          32          33          34          35          36          37          38          39          40
           41          42          43          44          45          46          47          48          49          50
 ........................................................................................................................
   1  -1000.0     -1000.0     -1000.0     -1000.0     -1000.0     -1000.0     -1000.0     -1000.0     -1000.0     -1000.0    
      -1000.0     -1000.0     -1000.0     -1000.0     -1000.0     -1000.0     -1000.0     -1000.0     -1000.0     -1000.0    
      -1000.0     -1000.0     -1000.0     -1000.0     -1000.0     -1000.0     -1000.0     -1000.0     -1000.0     -1000.0    
      -1000.0     -1000.0     -1000.0     -1000.0     -1000.0     -1000.0     -1000.0     -1000.0     -1000.0     -1000.0    
      -1000.0     -1000.0     -1000.0     -1000.0     -1000.0     -1000.0     -1000.0     -1000.0     -1000.0       70.00    
   2  -1000.0     -1000.0     -1000.0     -1000.0     -1000.0     -1000.0     -1000.0       109.3       108.8       108.2    
        107.6       107.0       106.2       105.3       104.4       103.3       102.3       101.2       100.2       99.16    
        98.10       97.05       96.01       94.99       93.97       92.97       91.97       90.98       90.00       89.03    
        88.06       87.10       86.15       85.20       84.25       83.31       82.38       81.44       80.51       79.57    
        78.64       77.70       76.76       75.82       74.87       73.91       72.94       71.97       70.99       70.00    
   3  -1000.0     -1000.0     -1000.0     -1000.0     -1000.0     -1000.0       109.8       109.3       108.8       108.2    
        107.6       107.0       106.2       105.3       104.4       103.3       102.3       101.2       100.2       99.14    
        98.08       97.03       96.00       94.97       93.96       92.95       91.95       90.96       89.98       89.01    
        88.04       87.08       86.13       85.18       84.24       83.30       82.36       81.43       80.50       79.56    
        78.63       77.69       76.75       75.81       74.86       73.90       72.94       71.97       70.99       70.00    
   4  -1000.0     -1000.0     -1000.0     -1000.0     -1000.0       110.1       109.8       109.3       108.8       108.3    
        107.7       107.0       106.2       105.3       104.3       103.3       102.2       101.2       100.1       99.11    
        98.05       97.00       95.96       94.94       93.92       92.92       91.92       90.93       89.95       88.98    
        88.01       87.05       86.10       85.15       84.21       83.27       82.34       81.40       80.47       79.54    
        78.61       77.68       76.74       75.80       74.85       73.89       72.93       71.96       70.98       70.00    
   5  -1000.0     -1000.0     -1000.0     -1000.0       110.5       110.1       109.7       109.3       108.8       108.3    
        107.7       106.9       106.2       105.3       104.3       103.3       102.2       101.1       100.1       99.06    
        98.00       96.95       95.91       94.89       93.87       92.87       91.87       90.88       89.90       88.93    
        87.96       87.01       86.06       85.11       84.17       83.23       82.30       81.37       80.44       79.51    
        78.58       77.65       76.72       75.78       74.83       73.88       72.92       71.95       70.98       70.00    
   6  -1000.0     -1000.0     -1000.0       110.7       110.4       110.1       109.7       109.3       108.8       108.3    
        107.6       106.9       106.1       105.2       104.3       103.2       102.1       101.1       100.0       99.00    
        97.93       96.88       95.85       94.82       93.80       92.80       91.80       90.81       89.83       88.86    
        87.90       86.94       86.00       85.05       84.11       83.18       82.25       81.32       80.39       79.47    
        78.54       77.62       76.68       75.75       74.81       73.86       72.91       71.94       70.97       70.00    
   7  -1000.0     -1000.0       110.9       110.7       110.4       110.1       109.7       109.3       108.8       108.2    
        107.6       106.9       106.1       105.2       104.2       103.1       102.1       101.0       99.96       98.92    
        97.85       96.80       95.76       94.74       93.72       92.71       91.72       90.73       89.75       88.78    
        87.82       86.87       85.92       84.98       84.04       83.11       82.18       81.26       80.34       79.42    
        78.49       77.57       76.65       75.72       74.78       73.84       72.89       71.93       70.97       70.00    
   8  -1000.0       110.9       110.8       110.6       110.3       110.0       109.7       109.3       108.8       108.2    
        107.5       106.8       106.0       105.1       104.1       103.0       102.0       100.9       99.87       98.82    
        97.75       96.70       95.66       94.63       93.62       92.61       91.62       90.63       89.65       88.68    
        87.73       86.77       85.83       84.89       83.96       83.03       82.11       81.19       80.27       79.35    
        78.44       77.52       76.60       75.68       74.75       73.81       72.87       71.92       70.96       70.00    
   9  -1000.0       110.8       110.7       110.5       110.3       110.0       109.6       109.2       108.7       108.1    
        107.5       106.7       105.9       105.0       104.0       102.9       101.9       100.8       99.75       98.70    
        97.63       96.58       95.54       94.51       93.50       92.49       91.50       90.51       89.54       88.57    
        87.61       86.66       85.72       84.79       83.86       82.94       82.02       81.10       80.19       79.28    
        78.37       77.46       76.55       75.63       74.71       73.78       72.85       71.90       70.95       70.00    
  10  -1000.0       110.6       110.6       110.4       110.2       109.9       109.5       109.1       108.6       108.0    
        107.4       106.6       105.8       104.9       103.9       102.8       101.7       100.7       99.62       98.57    
        97.50       96.44       95.40       94.38       93.36       92.35       91.36       90.38       89.40       88.44    
        87.49       86.54       85.60       84.67       83.75       82.83       81.91       81.00       80.10       79.19    
        78.29       77.39       76.48       75.58       74.66       73.74       72.82       71.88       70.94       70.00    
  11  -1000.0       110.5       110.5       110.3       110.1       109.8       109.4       109.0       108.5       107.9    
        107.3       106.5       105.7       104.8       103.8       102.7       101.6       100.5       99.47       98.41    
        97.34       96.29       95.25       94.22       93.20       92.20       91.21       90.22       89.25       88.29    
        87.34       86.40       85.47       84.54       83.62       82.70       81.80       80.89       79.99       79.10    
        78.20       77.31       76.41       75.52       74.61       73.70       72.79       71.86       70.93       70.00    
  12  -1000.0       110.4       110.3       110.2       110.0       109.7       109.3       108.9       108.4       107.8    
        107.1       106.4       105.5       104.6       103.6       102.5       101.4       100.4       99.29       98.24    
        97.16       96.11       95.07       94.04       93.03       92.03       91.03       90.06       89.09       88.13    
        87.18       86.24       85.31       84.39       83.48       82.57       81.67       80.77       79.88       78.99    
        78.10       77.22       76.34       75.45       74.56       73.66       72.75       71.84       70.92       70.00    
  13  -1000.0       110.3       110.2       110.0       109.8       109.5       109.2       108.7       108.2       107.6    
        107.0       106.2       105.4       104.4       103.4       102.3       101.2       100.2       99.10       98.04    
        96.97       95.91       94.87       93.85       92.84       91.84       90.85       89.87       88.91       87.95    
        87.01       86.07       85.15       84.23       83.32       82.42       81.52       80.63       79.75       78.87    
        78.00       77.12       76.25       75.38       74.50       73.61       72.72       71.82       70.91       70.00    
  14  -1000.0       110.1       110.0       109.9       109.7       109.4       109.0       108.6       108.0       107.4    
        106.8       106.0       105.2       104.2       103.2       102.1       101.0       99.94       98.88       97.82    
        96.75       95.69       94.66       93.64       92.63       91.63       90.64       89.67       88.71       87.76    
        86.82       85.89       84.97       84.06       83.15       82.25       81.36       80.48       79.61       78.74    
        77.88       77.02       76.16       75.30       74.43       73.56       72.68       71.79       70.90       70.00    
  15  -1000.0       109.9       109.8       109.7       109.5       109.2       108.8       108.4       107.8       107.2    
        106.6       105.8       104.9       104.0       103.0       101.9       100.8       99.70       98.63       97.57    
        96.50       95.45       94.42       93.40       92.40       91.40       90.42       89.45       88.50       87.55    
        86.62       85.69       84.78       83.87       82.97       82.08       81.19       80.32       79.45       78.60    
        77.75       76.91       76.06       75.22       74.36       73.51       72.64       71.77       70.89       70.00    
  16  -1000.0       109.7       109.6       109.5       109.3       109.0       108.6       108.1       107.6       107.0    
        106.3       105.5       104.7       103.8       102.7       101.6       100.5       99.43       98.36       97.30    
        96.24       95.19       94.16       93.15       92.15       91.16       90.19       89.22       88.27       87.33    
        86.40       85.48       84.57       83.67       82.77       81.89       81.01       80.14       79.29       78.45    
        77.61       76.78       75.96       75.13       74.30       73.45       72.60       71.74       70.87       70.00    
  17  -1000.0       109.5       109.4       109.2       109.0       108.7       108.3       107.9       107.4       106.7    
        106.0       105.3       104.4       103.5       102.4       101.3       100.2       99.13       98.06       97.01    
        95.95       94.91       93.88       92.88       91.89       90.90       89.94       88.98       88.04       87.10    
        86.18       85.27       84.36       83.46       82.57       81.69       80.81       79.96       79.11       78.28    
        77.47       76.66       75.85       75.04       74.23       73.40       72.56       71.72       70.86       70.00    
  18  -1000.0       109.2       109.1       109.0       108.8       108.5       108.1       107.6       107.1       106.4    
        105.7       105.0       104.1       103.2       102.1       101.0       99.89       98.81       97.74       96.68    
        95.63       94.60       93.59       92.59       91.60       90.63       89.67       88.73       87.79       86.86    
        85.95       85.04       84.14       83.25       82.36       81.48       80.61       79.76       78.93       78.11    
        77.32       76.53       75.75       74.96       74.16       73.35       72.53       71.69       70.85       70.00    
  19  -1000.0       108.9       108.9       108.7       108.5       108.2       107.8       107.3       106.8       106.1    
        105.4       104.6       103.8       102.8       101.8       100.6       99.53       98.45       97.38       96.33    
        95.28       94.27       93.27       92.28       91.31       90.35       89.40       88.46       87.54       86.62    
        85.71       84.81       83.92       83.03       82.15       81.27       80.40       79.55       78.73       77.94    
        77.17       76.40       75.64       74.88       74.10       73.30       72.50       71.67       70.84       70.00    
  20  -1000.0       108.7       108.6       108.4       108.2       107.9       107.5       107.0       106.4       105.8    
        105.1       104.3       103.4       102.4       101.4       100.2       99.14       98.05       96.98       95.94    
        94.92       93.92       92.94       91.97       91.01       90.06       89.12       88.20       87.28       86.38    
        85.48       84.59       83.70       82.82       81.94       81.07       80.20       79.35       78.53       77.76    
        77.02       76.29       75.55       74.81       74.05       73.27       72.47       71.66       70.83       70.00    
  21  -1000.0       108.3       108.3       108.1       107.8       107.5       107.1       106.6       106.0       105.4    
        104.7       103.9       103.0       102.0       101.0       99.82       98.71       97.62       96.55       95.51    
        94.52       93.55       92.59       91.65       90.71       89.77       88.85       87.94       87.03       86.14    
        85.25       84.37       83.49       82.62       81.75       80.88       80.01       79.16       78.34       77.60    
        76.89       76.19       75.48       74.75       74.01       73.24       72.46       71.65       70.83       70.00    
  22  -1000.0       108.0       107.9       107.8       107.5       107.1       106.7       106.2       105.6       105.0    
        104.2       103.4       102.5       101.5       100.5       99.34       98.23       97.14       96.08       95.05    
        94.11       93.18       92.26       91.34       90.42       89.50       88.59       87.69       86.80       85.92    
        85.04       84.17       83.31       82.45       81.59       80.73       79.87       79.02       78.19       77.49    
        76.81       76.12       75.43       74.72       73.99       73.24       72.46       71.66       70.83       70.00    
  23  -1000.0       107.7       107.6       107.4       107.1       106.7       106.3       105.8       105.2       104.5    
        103.7       102.9       102.0       101.0       99.97       98.83       97.71       96.63       95.57       94.55    
        93.70       92.83       91.95       91.06       90.16       89.26       88.37       87.48       86.59       85.72    
        84.86       84.01       83.16       82.31       81.47       80.63       79.79       78.96       78.17       77.46    
        76.78       76.10       75.41       74.71       73.99       73.24       72.47       71.67       70.84       70.00    
  24  -1000.0       107.3       107.2       107.0       106.7       106.3       105.9       105.3       104.7       104.0    
        103.2       102.4       101.5       100.5       99.42       98.27       97.15       96.07       95.01       94.00    
        93.32       92.55       91.71       90.85       89.97       89.09       88.20       87.32       86.45       85.59    
        84.74       83.90       83.06       82.23       81.40       80.58       79.77       78.97       78.20       77.48    
        76.79       76.11       75.42       74.72       74.00       73.26       72.49       71.69       70.85       70.00    
  25  -1000.0       107.0       106.9       106.6       106.3       105.9       105.4       104.8       104.2       103.4    
        102.7       101.8       100.9       99.88       98.81       97.66       96.54       95.45       94.40       93.39    
        93.09       92.42       91.61       90.76       89.89       89.02       88.14       87.26       86.39       85.54    
        84.70       83.86       83.04       82.22       81.41       80.60       79.80       79.03       78.27       77.55    
        76.85       76.15       75.46       74.75       74.03       73.28       72.51       71.70       70.87       70.00    
  26  -1000.0       107.4       107.3       107.1       106.8       106.4       105.9       105.4       104.7       104.0    
        103.3       102.4       101.5       100.5       99.45       98.30       97.19       96.10       95.05       94.04    
        93.36       92.58       91.75       90.88       90.00       89.12       88.24       87.36       86.49       85.63    
        84.79       83.95       83.13       82.31       81.50       80.70       79.92       79.14       78.39       77.65    
        76.94       76.23       75.51       74.79       74.06       73.30       72.51       71.70       70.86       70.00    
  27  -1000.0       107.8       107.7       107.5       107.2       106.8       106.4       105.9       105.3       104.6    
        103.8       103.0       102.1       101.1       100.1       98.91       97.79       96.70       95.65       94.62    
        93.77       92.90       92.02       91.12       90.23       89.33       88.44       87.55       86.68       85.81    
        84.96       84.12       83.29       82.47       81.66       80.86       80.07       79.29       78.53       77.78    
        77.05       76.32       75.58       74.84       74.09       73.32       72.52       71.70       70.86       70.00    
  28  -1000.0       108.2       108.1       107.9       107.6       107.3       106.8       106.3       105.8       105.1    
        104.4       103.5       102.6       101.7       100.6       99.46       98.34       97.25       96.19       95.16    
        94.22       93.29       92.36       91.44       90.52       89.60       88.70       87.80       86.92       86.05    
        85.19       84.34       83.50       82.67       81.85       81.05       80.25       79.46       78.69       77.93    
        77.17       76.42       75.66       74.90       74.13       73.34       72.53       71.70       70.86       70.00    
  29  -1000.0       108.5       108.4       108.3       108.0       107.7       107.3       106.8       106.2       105.6    
        104.8       104.0       103.1       102.2       101.1       99.97       98.85       97.76       96.70       95.66    
        94.66       93.69       92.73       91.78       90.84       89.91       88.99       88.08       87.19       86.30    
        85.43       84.58       83.73       82.89       82.06       81.25       80.44       79.64       78.85       78.07    
        77.30       76.53       75.75       74.97       74.18       73.37       72.55       71.71       70.86       70.00    
  30  -1000.0       108.9       108.8       108.6       108.4       108.1       107.7       107.2       106.6       106.0    
        105.3       104.5       103.6       102.6       101.6       100.4       99.32       98.23       97.16       96.11    
        95.08       94.08       93.10       92.13       91.17       90.23       89.29       88.37       87.47       86.57    
        85.69       84.82       83.96       83.12       82.28       81.45       80.63       79.82       79.02       78.22    
        77.43       76.64       75.84       75.04       74.23       73.41       72.58       71.73       70.87       70.00    
  31  -1000.0       109.2       109.1       109.0       108.7       108.4       108.0       107.6       107.0       106.4    
        105.7       104.9       104.0       103.0       102.0       100.9       99.75       98.66       97.58       96.53    
        95.48       94.46       93.46       92.47       91.50       90.54       89.60       88.67       87.75       86.84    
        85.95       85.07       84.20       83.34       82.50       81.66       80.83       80.00       79.19       78.37    
        77.56       76.75       75.94       75.12       74.29       73.46       72.61       71.75       70.88       70.00    
  32  -1000.0       109.5       109.4       109.3       109.0       108.7       108.4       107.9       107.4       106.7    
        106.0       105.2       104.4       103.4       102.4       101.2       100.1       99.04       97.97       96.91    
        95.85       94.82       93.80       92.80       91.82       90.85       89.89       88.95       88.02       87.11    
        86.21       85.32       84.44       83.57       82.71       81.86       81.02       80.18       79.35       78.52    
        77.69       76.87       76.03       75.20       74.36       73.50       72.64       71.77       70.89       70.00    
  33  -1000.0       109.8       109.7       109.6       109.3       109.0       108.7       108.2       107.7       107.1    
        106.4       105.6       104.7       103.8       102.7       101.6       100.5       99.40       98.32       97.26    
        96.19       95.15       94.13       93.12       92.12       91.14       90.18       89.22       88.29       87.36    
        86.45       85.55       84.66       83.78       82.91       82.05       81.20       80.35       79.50       78.66    
        77.82       76.98       76.13       75.28       74.42       73.55       72.68       71.79       70.90       70.00    
  34  -1000.0       110.0       110.0       109.8       109.6       109.3       108.9       108.5       108.0       107.3    
        106.7       105.9       105.0       104.1       103.0       101.9       100.8       99.72       98.64       97.58    
        96.51       95.46       94.43       93.41       92.41       91.42       90.44       89.48       88.54       87.61    
        86.69       85.78       84.88       83.99       83.11       82.24       81.37       80.51       79.65       78.80    
        77.94       77.08       76.22       75.36       74.48       73.60       72.71       71.82       70.91       70.00    
  35  -1000.0       110.3       110.2       110.1       109.8       109.6       109.2       108.7       108.2       107.6    
        106.9       106.1       105.3       104.4       103.3       102.2       101.1       100.0       98.94       97.87    
        96.80       95.74       94.70       93.68       92.67       91.68       90.70       89.73       88.78       87.84    
        86.91       85.99       85.09       84.19       83.30       82.42       81.54       80.67       79.80       78.93    
        78.06       77.19       76.31       75.43       74.55       73.65       72.75       71.84       70.92       70.00    
  36  -1000.0       110.5       110.4       110.3       110.1       109.8       109.4       109.0       108.4       107.8    
        107.2       106.4       105.5       104.6       103.6       102.5       101.4       100.3       99.20       98.14    
        97.06       96.00       94.96       93.93       92.92       91.92       90.93       89.96       89.00       88.05    
        87.12       86.19       85.28       84.37       83.47       82.58       81.69       80.81       79.93       79.05    
        78.17       77.28       76.40       75.51       74.61       73.70       72.79       71.86       70.93       70.00    
  37  -1000.0       110.7       110.6       110.5       110.3       110.0       109.6       109.2       108.6       108.0    
        107.4       106.6       105.8       104.8       103.8       102.7       101.6       100.5       99.44       98.38    
        97.30       96.24       95.19       94.16       93.15       92.14       91.15       90.17       89.21       88.25    
        87.31       86.38       85.46       84.55       83.64       82.74       81.84       80.95       80.06       79.16    
        78.27       77.38       76.48       75.58       74.67       73.75       72.82       71.89       70.95       70.00    
  38  -1000.0       110.8       110.8       110.6       110.4       110.1       109.8       109.3       108.8       108.2    
        107.6       106.8       106.0       105.0       104.0       102.9       101.8       100.7       99.66       98.60    
        97.52       96.45       95.41       94.37       93.35       92.34       91.35       90.37       89.40       88.44    
        87.49       86.56       85.63       84.71       83.79       82.88       81.98       81.07       80.17       79.27    
        78.37       77.46       76.55       75.64       74.72       73.79       72.85       71.91       70.96       70.00    
  39  -1000.0       111.0       110.9       110.8       110.6       110.3       109.9       109.5       109.0       108.4    
        107.7       107.0       106.1       105.2       104.2       103.1       102.0       100.9       99.85       98.79    
        97.71       96.65       95.60       94.57       93.54       92.53       91.53       90.55       89.57       88.61    
        87.66       86.72       85.78       84.85       83.93       83.02       82.10       81.19       80.28       79.37    
        78.46       77.54       76.63       75.70       74.77       73.83       72.89       71.93       70.97       70.00    
  40  -1000.0       111.1       111.0       110.9       110.7       110.4       110.0       109.6       109.1       108.5    
        107.8       107.1       106.3       105.4       104.3       103.3       102.2       101.1       100.0       98.96    
        97.88       96.82       95.77       94.74       93.71       92.70       91.70       90.71       89.73       88.77    
        87.81       86.86       85.92       84.99       84.06       83.14       82.22       81.30       80.38       79.46    
        78.54       77.62       76.69       75.76       74.82       73.87       72.91       71.95       70.98       70.00    
  41  -1000.0       111.2       111.2       111.0       110.8       110.5       110.1       109.7       109.2       108.6    
        108.0       107.2       106.4       105.5       104.5       103.4       102.3       101.2       100.2       99.11    
        98.04       96.97       95.93       94.89       93.87       92.85       91.85       90.86       89.88       88.91    
        87.95       87.00       86.05       85.11       84.18       83.25       82.32       81.39       80.47       79.54    
        78.61       77.68       76.75       75.81       74.86       73.90       72.94       71.97       70.99       70.00    
  42  -1000.0       111.4       111.2       111.1       110.9       110.6       110.2       109.8       109.3       108.7    
        108.1       107.3       106.5       105.6       104.6       103.5       102.4       101.4       100.3       99.25    
        98.17       97.11       96.06       95.03       94.00       92.99       91.98       90.99       90.01       89.03    
        88.07       87.11       86.16       85.22       84.28       83.34       82.41       81.48       80.55       79.61    
        78.68       77.74       76.80       75.85       74.90       73.93       72.96       71.98       70.99       70.00    
  43  -1000.0       111.5       111.4       111.2       110.9       110.6       110.3       109.9       109.4       108.8    
        108.1       107.4       106.6       105.7       104.7       103.6       102.5       101.5       100.4       99.36    
        98.29       97.23       96.18       95.14       94.12       93.10       92.10       91.10       90.12       89.14    
        88.18       87.22       86.26       85.31       84.37       83.43       82.49       81.55       80.62       79.68    
        78.74       77.79       76.85       75.89       74.93       73.96       72.98       72.00       71.00       70.00    
  44  -1000.0     -1000.0       111.5       111.3       111.0       110.7       110.3       109.9       109.4       108.8    
        108.2       107.5       106.6       105.8       104.8       103.7       102.6       101.6       100.5       99.46    
        98.38       97.33       96.28       95.24       94.22       93.20       92.20       91.20       90.22       89.24    
        88.27       87.31       86.35       85.40       84.45       83.50       82.56       81.62       80.68       79.73    
        78.79       77.84       76.89       75.93       74.96       73.98       73.00       72.01       71.01       70.00    
  45  -1000.0     -1000.0     -1000.0       111.3       111.0       110.7       110.3       109.9       109.4       108.8    
        108.2       107.5       106.7       105.8       104.8       103.8       102.7       101.6       100.6       99.53    
        98.46       97.41       96.36       95.33       94.30       93.29       92.28       91.28       90.30       89.32    
        88.34       87.38       86.42       85.46       84.51       83.56       82.62       81.67       80.73       79.78    
        78.83       77.88       76.92       75.95       74.98       74.00       73.02       72.02       71.01       70.00    
  46  -1000.0     -1000.0     -1000.0     -1000.0       111.1       110.7       110.3       109.9       109.4       108.9    
        108.2       107.5       106.7       105.8       104.9       103.8       102.8       101.7       100.6       99.60    
        98.53       97.47       96.43       95.39       94.37       93.35       92.35       91.35       90.36       89.38    
        88.41       87.44       86.48       85.52       84.56       83.61       82.66       81.71       80.77       79.82    
        78.86       77.91       76.95       75.98       75.00       74.02       73.03       72.03       71.02       70.00    
  47  -1000.0     -1000.0     -1000.0     -1000.0     -1000.0       110.7       110.3       109.8       109.4       108.8    
        108.2       107.5       106.7       105.9       104.9       103.8       102.8       101.7       100.7       99.64    
        98.57       97.52       96.48       95.44       94.42       93.40       92.40       91.40       90.41       89.43    
        88.45       87.48       86.52       85.56       84.60       83.65       82.70       81.75       80.80       79.84    
        78.89       77.93       76.97       76.00       75.02       74.03       73.04       72.03       71.02       70.00    
  48  -1000.0     -1000.0     -1000.0     -1000.0     -1000.0     -1000.0       110.3       109.9       109.3       108.8    
        108.2       107.5       106.8       105.9       104.9       103.9       102.8       101.8       100.7       99.67    
        98.61       97.55       96.51       95.48       94.45       93.44       92.43       91.43       90.44       89.46    
        88.48       87.51       86.55       85.59       84.63       83.67       82.72       81.77       80.82       79.86    
        78.90       77.94       76.98       76.01       75.03       74.04       73.04       72.04       71.02       70.00    
  49  -1000.0     -1000.0     -1000.0     -1000.0     -1000.0     -1000.0     -1000.0       109.9       109.4       108.8    
        108.2       107.5       106.8       105.9       104.9       103.9       102.8       101.8       100.7       99.69    
        98.62       97.57       96.52       95.49       94.47       93.45       92.45       91.45       90.46       89.47    
        88.50       87.53       86.56       85.60       84.64       83.69       82.73       81.78       80.83       79.87    
        78.91       77.95       76.99       76.01       75.03       74.04       73.04       72.04       71.02       70.00    
  50  -1000.0     -1000.0     -1000.0     -1000.0     -1000.0     -1000.0     -1000.0     -1000.0     -1000.0     -1000.0    
      -1000.0     -1000.0     -1000.0     -1000.0     -1000.0     -1000.0     -1000.0     -1000.0     -1000.0     -1000.0    
      -1000.0     -1000.0     -1000.0     -1000.0     -1000.0     -1000.0     -1000.0     -1000.0     -1000.0     -1000.0    
      -1000.0     -1000.0     -1000.0     -1000.0     -1000.0     -1000.0     -1000.0     -1000.0     -1000.0     -1000.0    
      -1000.0     -1000.0     -1000.0     -1000.0     -1000.0     -1000.0     -1000.0     -1000.0     -1000.0       70.00    
1
              HEAD IN LAYER   3 AT END OF TIME STEP   1 IN STRESS PERIOD    1
  ---------------------------------------------------------------------------

            1           2           3           4           5           6           7           8           9          10
           11          12          13          14          15          16          17          18          19          20
           21          22          23          24          25          26          27          28          29          30
           31          32          33          34          35          36          37          38          39          40
[...]
        93.95       93.31       92.62       91.87       91.08       90.25       89.40       88.51       87.61       86.68    
        85.74       84.77       83.77       82.74       81.67       80.53       79.30       77.95       76.60       76.26    
        75.91       75.44       74.89       74.27       73.61       72.92       72.20       71.48       70.74       70.00    
  24  -1000.0       107.3       107.2       107.0       106.7       106.3       105.9       105.3       104.7       104.0    
        103.2       102.4       101.5       100.5       99.42       98.27       97.15       96.07       95.01       94.00    
        93.62       93.11       92.49       91.78       91.02       90.21       89.36       88.49       87.59       86.67    
        85.74       84.78       83.80       82.79       81.75       80.67       79.56       78.44       77.42       76.75    
        76.17       75.59       74.97       74.32       73.64       72.94       72.22       71.49       70.74       70.00    
  25  -1000.0       107.0       106.9       106.6       106.3       105.9       105.4       104.8       104.2       103.4    
        102.7       101.8       100.9       99.88       98.81       97.66       96.54       95.45       94.40       93.39    
        93.42       93.03       92.45       91.76       91.01       90.20       89.36       88.50       87.61       86.70    
        85.77       84.82       83.85       82.87       81.86       80.84       79.82       78.82       77.90       77.12    
        76.43       75.76       75.09       74.40       73.70       72.98       72.24       71.50       70.75       70.00    
  26  -1000.0       107.4       107.3       107.1       106.8       106.4       105.9       105.4       104.7       104.0    
        103.3       102.4       101.5       100.5       99.45       98.30       97.19       96.10       95.05       94.04    
        93.66       93.15       92.53       91.82       91.06       90.25       89.41       88.54       87.65       86.75    
        85.83       84.89       83.94       82.98       82.00       81.03       80.06       79.12       78.23       77.42    
        76.66       75.93       75.21       74.49       73.76       73.02       72.28       71.52       70.76       70.00    
  27  -1000.0       107.8       107.7       107.5       107.2       106.8       106.4       105.9       105.3       104.6    
        103.8       103.0       102.1       101.1       100.1       98.91       97.79       96.70       95.65       94.62    
        94.02       93.38       92.69       91.95       91.16       90.34       89.49       88.62       87.73       86.83    
        85.91       84.98       84.04       83.10       82.15       81.20       80.27       79.36       78.48       77.65    
        76.86       76.10       75.34       74.59       73.83       73.08       72.31       71.54       70.77       70.00    
  28  -1000.0       108.2       108.1       107.9       107.6       107.3       106.8       106.3       105.8       105.1    
        104.4       103.5       102.6       101.7       100.6       99.46       98.34       97.25       96.19       95.16    
        94.42       93.68       92.92       92.13       91.31       90.47       89.61       88.73       87.83       86.93    
        86.02       85.09       84.16       83.23       82.30       81.37       80.46       79.56       78.69       77.85    
        77.04       76.24       75.46       74.68       73.91       73.13       72.35       71.57       70.79       70.00    
  29  -1000.0       108.5       108.4       108.3       108.0       107.7       107.3       106.8       106.2       105.6    
        104.8       104.0       103.1       102.2       101.1       99.97       98.85       97.76       96.70       95.66    
        94.82       94.00       93.17       92.34       91.49       90.63       89.75       88.86       87.96       87.05    
        86.14       85.22       84.29       83.37       82.45       81.53       80.63       79.74       78.87       78.02    
        77.19       76.38       75.57       74.78       73.98       73.19       72.39       71.60       70.80       70.00    
  30  -1000.0       108.9       108.8       108.6       108.4       108.1       107.7       107.2       106.6       106.0    
        105.3       104.5       103.6       102.6       101.6       100.4       99.32       98.23       97.16       96.11    
        95.21       94.32       93.45       92.57       91.69       90.80       89.91       89.01       88.10       87.19    
        86.27       85.35       84.43       83.51       82.60       81.69       80.79       79.90       79.03       78.17    
        77.33       76.50       75.68       74.86       74.05       73.24       72.43       71.62       70.81       70.00    
  31  -1000.0       109.2       109.1       109.0       108.7       108.4       108.0       107.6       107.0       106.4    
        105.7       104.9       104.0       103.0       102.0       100.9       99.75       98.66       97.58       96.53    
        95.57       94.64       93.73       92.81       91.90       90.99       90.08       89.17       88.25       87.33    
        86.41       85.49       84.57       83.65       82.74       81.83       80.94       80.05       79.17       78.31    
        77.46       76.61       75.78       74.95       74.12       73.29       72.47       71.65       70.82       70.00    
  32  -1000.0       109.5       109.4       109.3       109.0       108.7       108.4       107.9       107.4       106.7    
        106.0       105.2       104.4       103.4       102.4       101.2       100.1       99.04       97.97       96.91    
        95.92       94.95       94.00       93.06       92.12       91.19       90.26       89.34       88.41       87.48    
        86.56       85.63       84.71       83.79       82.88       81.97       81.08       80.19       79.30       78.43    
        77.57       76.72       75.87       75.02       74.18       73.35       72.51       71.67       70.84       70.00    
  33  -1000.0       109.8       109.7       109.6       109.3       109.0       108.7       108.2       107.7       107.1    
        106.4       105.6       104.7       103.8       102.7       101.6       100.5       99.40       98.32       97.26    
        96.24       95.24       94.26       93.30       92.34       91.39       90.45       89.51       88.57       87.64    
        86.70       85.78       84.85       83.93       83.02       82.11       81.21       80.31       79.43       78.55    
        77.68       76.81       75.95       75.10       74.24       73.39       72.54       71.70       70.85       70.00    
  34  -1000.0       110.0       110.0       109.8       109.6       109.3       108.9       108.5       108.0       107.3    
        106.7       105.9       105.0       104.1       103.0       101.9       100.8       99.72       98.64       97.58    
        96.54       95.52       94.52       93.53       92.55       91.59       90.63       89.68       88.73       87.79    
        86.85       85.92       84.99       84.07       83.15       82.24       81.33       80.43       79.54       78.65    
        77.77       76.90       76.03       75.16       74.30       73.44       72.58       71.72       70.86       70.00    
  35  -1000.0       110.3       110.2       110.1       109.8       109.6       109.2       108.7       108.2       107.6    
        106.9       106.1       105.3       104.4       103.3       102.2       101.1       100.0       98.94       97.87    
        96.81       95.77       94.75       93.75       92.76       91.78       90.81       89.85       88.89       87.94    
        87.00       86.06       85.12       84.20       83.27       82.36       81.45       80.54       79.64       78.75    
        77.86       76.98       76.10       75.22       74.35       73.48       72.61       71.74       70.87       70.00    
  36  -1000.0       110.5       110.4       110.3       110.1       109.8       109.4       109.0       108.4       107.8    
        107.2       106.4       105.5       104.6       103.6       102.5       101.4       100.3       99.20       98.14    
        97.06       96.01       94.98       93.96       92.96       91.96       90.98       90.01       89.04       88.09    
        87.14       86.19       85.25       84.32       83.39       82.47       81.56       80.65       79.74       78.84    
        77.95       77.05       76.17       75.28       74.40       73.52       72.64       71.76       70.88       70.00    
  37  -1000.0       110.7       110.6       110.5       110.3       110.0       109.6       109.2       108.6       108.0    
        107.4       106.6       105.8       104.8       103.8       102.7       101.6       100.5       99.44       98.38    
        97.29       96.23       95.18       94.15       93.14       92.14       91.15       90.16       89.19       88.23    
        87.27       86.32       85.37       84.44       83.50       82.58       81.66       80.74       79.83       78.92    
        78.02       77.12       76.23       75.34       74.44       73.55       72.67       71.78       70.89       70.00    
  38  -1000.0       110.8       110.8       110.6       110.4       110.1       109.8       109.3       108.8       108.2    
        107.6       106.8       106.0       105.0       104.0       102.9       101.8       100.7       99.66       98.60    
        97.50       96.43       95.37       94.33       93.31       92.30       91.30       90.31       89.33       88.36    
        87.40       86.44       85.49       84.55       83.61       82.68       81.75       80.83       79.92       79.00    
        78.09       77.19       76.29       75.38       74.49       73.59       72.69       71.79       70.90       70.00    
  39  -1000.0       111.0       110.9       110.8       110.6       110.3       109.9       109.5       109.0       108.4    
        107.7       107.0       106.1       105.2       104.2       103.1       102.0       100.9       99.85       98.79    
        97.69       96.61       95.55       94.50       93.47       92.45       91.44       90.45       89.46       88.48    
        87.51       86.55       85.60       84.65       83.71       82.77       81.84       80.91       79.99       79.07    
        78.16       77.25       76.34       75.43       74.52       73.62       72.71       71.81       70.90       70.00    
  40  -1000.0       111.1       111.0       110.9       110.7       110.4       110.0       109.6       109.1       108.5    
        107.8       107.1       106.3       105.4       104.3       103.3       102.2       101.1       100.0       98.96    
        97.86       96.77       95.70       94.65       93.61       92.59       91.57       90.57       89.58       88.60    
        87.62       86.66       85.70       84.75       83.80       82.86       81.92       80.99       80.06       79.14    
        78.22       77.30       76.38       75.47       74.56       73.65       72.73       71.82       70.91       70.00    
  41  -1000.0       111.2       111.2       111.0       110.8       110.5       110.1       109.7       109.2       108.6    
        108.0       107.2       106.4       105.5       104.5       103.4       102.3       101.2       100.2       99.11    
        98.01       96.92       95.84       94.78       93.74       92.71       91.69       90.69       89.69       88.70    
        87.72       86.75       85.79       84.83       83.88       82.94       81.99       81.06       80.13       79.20    
        78.27       77.35       76.43       75.51       74.59       73.67       72.75       71.83       70.92       70.00    
  42  -1000.0     -1000.0       111.2       111.1       110.9       110.6       110.2       109.8       109.3       108.7    
        108.1       107.3       106.5       105.6       104.6       103.5       102.4       101.4       100.3       99.25    
        98.14       97.04       95.97       94.90       93.86       92.82       91.80       90.79       89.79       88.80    
        87.81       86.84       85.87       84.91       83.95       83.00       82.06       81.12       80.18       79.25    
        78.32       77.39       76.47       75.54       74.62       73.69       72.77       71.85       70.92       70.00    
  43  -1000.0     -1000.0     -1000.0       111.2       110.9       110.6       110.3       109.9       109.4       108.8    
        108.1       107.4       106.6       105.7       104.7       103.6       102.5       101.5       100.4       99.36    
        98.25       97.15       96.07       95.01       93.96       92.92       91.89       90.88       89.87       88.88    
        87.89       86.91       85.94       84.98       84.02       83.07       82.12       81.17       80.23       79.30    
        78.36       77.43       76.50       75.57       74.64       73.71       72.78       71.86       70.93       70.00    
  44  -1000.0     -1000.0     -1000.0     -1000.0       111.0       110.7       110.3       109.9       109.4       108.8    
        108.2       107.5       106.6       105.8       104.8       103.7       102.6       101.6       100.5       99.46    
        98.34       97.25       96.16       95.10       94.04       93.00       91.97       90.96       89.95       88.95    
        87.96       86.98       86.00       85.04       84.08       83.12       82.17       81.22       80.28       79.34    
        78.40       77.46       76.53       75.59       74.66       73.73       72.80       71.86       70.93       70.00    
  45  -1000.0     -1000.0     -1000.0     -1000.0     -1000.0       110.7       110.3       109.9       109.4       108.8    
        108.2       107.5       106.7       105.8       104.8       103.8       102.7       101.6       100.6       99.53    
        98.42       97.32       96.24       95.17       94.11       93.07       92.04       91.02       90.01       89.01    
        88.02       87.03       86.06       85.09       84.12       83.16       82.21       81.26       80.31       79.37    
        78.43       77.49       76.55       75.61       74.68       73.74       72.81       71.87       70.94       70.00    
  46  -1000.0     -1000.0     -1000.0     -1000.0     -1000.0     -1000.0       110.3       109.9       109.4       108.9    
        108.2       107.5       106.7       105.8       104.9       103.8       102.8       101.7       100.6       99.60    
        98.48       97.38       96.30       95.23       94.17       93.13       92.09       91.07       90.06       89.06    
        88.06       87.08       86.10       85.13       84.16       83.20       82.24       81.29       80.34       79.40    
        78.45       77.51       76.57       75.63       74.69       73.75       72.82       71.88       70.94       70.00    
  47  -1000.0     -1000.0     -1000.0     -1000.0     -1000.0     -1000.0     -1000.0       109.8       109.4       108.8    
        108.2       107.5       106.7       105.9       104.9       103.8       102.8       101.7       100.7       99.64    
        98.53       97.43       96.34       95.27       94.21       93.17       92.13       91.11       90.10       89.09    
        88.10       87.11       86.13       85.16       84.19       83.23       82.27       81.31       80.36       79.42    
        78.47       77.53       76.58       75.64       74.70       73.76       72.82       71.88       70.94       70.00    
  48  -1000.0     -1000.0     -1000.0     -1000.0     -1000.0     -1000.0     -1000.0     -1000.0       109.3       108.8    
        108.2       107.5       106.8       105.9       104.9       103.9       102.8       101.8       100.7       99.67    
        98.56       97.46       96.37       95.30       94.24       93.20       92.16       91.14       90.12       89.12    
        88.12       87.13       86.15       85.18       84.21       83.24       82.28       81.33       80.38       79.43    
        78.48       77.54       76.59       75.65       74.71       73.77       72.83       71.88       70.94       70.00    
  49  -1000.0     -1000.0     -1000.0     -1000.0     -1000.0     -1000.0     -1000.0     -1000.0     -1000.0       108.8    
        108.2       107.5       106.8       105.9       104.9       103.9       102.8       101.8       100.7       99.69    
        98.57       97.47       96.39       95.32       94.26       93.21       92.17       91.15       90.13       89.13    
        88.13       87.14       86.16       85.19       84.22       83.25       82.29       81.34       80.38       79.43    
        78.49       77.54       76.60       75.66       74.71       73.77       72.83       71.89       70.94       70.00    
  50  -1000.0     -1000.0     -1000.0     -1000.0     -1000.0     -1000.0     -1000.0     -1000.0     -1000.0     -1000.0    
      -1000.0     -1000.0     -1000.0     -1000.0     -1000.0     -1000.0     -1000.0     -1000.0     -1000.0     -1000.0    
      -1000.0     -1000.0     -1000.0     -1000.0     -1000.0     -1000.0     -1000.0     -1000.0     -1000.0     -1000.0    
      -1000.0     -1000.0     -1000.0     -1000.0     -1000.0     -1000.0     -1000.0     -1000.0     -1000.0     -1000.0    
      -1000.0     -1000.0     -1000.0     -1000.0     -1000.0     -1000.0     -1000.0     -1000.0     -1000.0       70.00    

 HEAD WILL BE SAVED ON UNIT   51 AT END OF TIME STEP    1, STRESS PERIOD    1

 DRAWDOWN WILL BE SAVED ON UNIT   52 AT END OF TIME STEP    1, STRESS PERIOD    1
1
  VOLUMETRIC BUDGET FOR ENTIRE MODEL AT END OF TIME STEP    1, STRESS PERIOD   1
  ------------------------------------------------------------------------------

     CUMULATIVE VOLUMES      L**3       RATES FOR THIS TIME STEP      L**3/T
     ------------------                 ------------------------

           IN:                                      IN:
           ---                                      ---
             STORAGE =           0.0000               STORAGE =           0.0000
       CONSTANT HEAD =           0.0000         CONSTANT HEAD =           0.0000
               WELLS =         375.0000                 WELLS =         375.0000
       RIVER LEAKAGE =         475.6183         RIVER LEAKAGE =         475.6183
                  ET =           0.0000                    ET =           0.0000
            RECHARGE =       32599.9980              RECHARGE =       32599.9980

            TOTAL IN =       33450.6172              TOTAL IN =       33450.6172

          OUT:                                     OUT:
          ----                                     ----
             STORAGE =           0.0000               STORAGE =           0.0000
       CONSTANT HEAD =       15972.8848         CONSTANT HEAD =       15972.8848
               WELLS =        1500.0000                 WELLS =        1500.0000
       RIVER LEAKAGE =       15231.3057         RIVER LEAKAGE =       15231.3057
                  ET =         746.3680                    ET =         746.3680
            RECHARGE =           0.0000              RECHARGE =           0.0000

           TOTAL OUT =       33450.5586             TOTAL OUT =       33450.5586

            IN - OUT =       5.8594E-02              IN - OUT =       5.8594E-02

 PERCENT DISCREPANCY =           0.00     PERCENT DISCREPANCY =           0.00






         TIME SUMMARY AT END OF TIME STEP    1 IN STRESS PERIOD    1
                    SECONDS     MINUTES      HOURS       DAYS        YEARS
                    -----------------------------------------------------------
   TIME STEP LENGTH  86400.      1440.0      24.000      1.0000     2.73785E-03
 STRESS PERIOD TIME  86400.      1440.0      24.000      1.0000     2.73785E-03
         TOTAL TIME  86400.      1440.0      24.000      1.0000     2.73785E-03
1

 Run end date and time (yyyy/mm/dd hh:mm:ss): 2026/02/25  4:40:00
 Elapsed run time: 13.449 Seconds

