                                  MODFLOW-2005     
      U.S. GEOLOGICAL SURVEY MODULAR FINITE-DIFFERENCE GROUND-WATER FLOW MODEL
                            VERSION 1.12.00 2/3/2017

 LIST FILE: static_ensemble_3123113.list
                         UNIT    2

 OPENING static_ensemble_3123113.dis
 FILE TYPE:DIS   UNIT   11   STATUS:OLD    
 FORMAT:FORMATTED              ACCESS:SEQUENTIAL          

 OPENING static_ensemble_3123113.bas
 FILE TYPE:BAS6   UNIT   13   STATUS:OLD    
 FORMAT:FORMATTED              ACCESS:SEQUENTIAL          

 OPENING static_ensemble_3123113.lpf
 FILE TYPE:LPF   UNIT   15   STATUS:OLD    
 FORMAT:FORMATTED              ACCESS:SEQUENTIAL          

 OPENING static_ensemble_3123113.evt
 FILE TYPE:EVT   UNIT   22   STATUS:OLD    
 FORMAT:FORMATTED              ACCESS:SEQUENTIAL          

 OPENING static_ensemble_3123113.rch
 FILE TYPE:RCH   UNIT   19   STATUS:OLD    
 FORMAT:FORMATTED              ACCESS:SEQUENTIAL          

 OPENING static_ensemble_3123113.riv
 FILE TYPE:RIV   UNIT   18   STATUS:OLD    
 FORMAT:FORMATTED              ACCESS:SEQUENTIAL          

 OPENING static_ensemble_3123113.wel
 FILE TYPE:WEL   UNIT   20   STATUS:OLD    
 FORMAT:FORMATTED              ACCESS:SEQUENTIAL          

 OPENING static_ensemble_3123113.oc
 FILE TYPE:OC   UNIT   14   STATUS:OLD    
 FORMAT:FORMATTED              ACCESS:SEQUENTIAL          

 OPENING static_ensemble_3123113.pcg
 FILE TYPE:PCG   UNIT   27   STATUS:OLD    
 FORMAT:FORMATTED              ACCESS:SEQUENTIAL          

 OPENING static_ensemble_3123113.cbc
 FILE TYPE:DATA(BINARY)   UNIT   53   STATUS:REPLACE
 FORMAT:UNFORMATTED            ACCESS:STREAM              

 OPENING static_ensemble_3123113.hds
 FILE TYPE:DATA(BINARY)   UNIT   51   STATUS:REPLACE
 FORMAT:UNFORMATTED            ACCESS:STREAM              

 OPENING static_ensemble_3123113.ddn
 FILE TYPE:DATA(BINARY)   UNIT   52   STATUS:REPLACE
 FORMAT:UNFORMATTED            ACCESS:STREAM              

 BAS -- BASIC PACKAGE, VERSION 7, 5/2/2005 INPUT READ FROM UNIT   13
 
 MODFLOW was compiled using mixed precision
 Precision of REAL variables:           6
 Precision of DOUBLE PRECISION variables:          15

 DISCRETIZATION INPUT DATA READ FROM UNIT   11
 # DIS package for MODFLOW-2005 generated by Flopy 3.9.5
    3 LAYERS        50 ROWS        50 COLUMNS
    1 STRESS PERIOD(S) IN SIMULATION
 MODEL TIME UNIT IS DAYS
 MODEL LENGTH UNIT IS METERS
  Confining bed flag for each layer:
   0   0   0

                     DELR =   1000.00    

                     DELC =   1000.00    



           TOP ELEVATION OF LAYER 1
 READING ON UNIT   11 WITH FORMAT: (50E15.6)           



             MODEL LAYER BOTTOM EL. FOR LAYER   1
 READING ON UNIT   11 WITH FORMAT: (50E15.6)           



             MODEL LAYER BOTTOM EL. FOR LAYER   2
 READING ON UNIT   11 WITH FORMAT: (50E15.6)           



             MODEL LAYER BOTTOM EL. FOR LAYER   3
 READING ON UNIT   11 WITH FORMAT: (50E15.6)           


 STRESS PERIOD     LENGTH       TIME STEPS     MULTIPLIER FOR DELT    SS FLAG
 ----------------------------------------------------------------------------
        1         1.000000          1                    1.000         SS

 STEADY-STATE SIMULATION



 
 # BAS6 package for MODFLOW-2005 generated by Flopy 3.9.5                        
 THE FREE FORMAT OPTION HAS BEEN SELECTED



                     BOUNDARY ARRAY FOR LAYER   1
 READING ON UNIT   13 WITH FORMAT: (50I10)             



                     BOUNDARY ARRAY FOR LAYER   2
 READING ON UNIT   13 WITH FORMAT: (50I10)             



                     BOUNDARY ARRAY FOR LAYER   3
 READING ON UNIT   13 WITH FORMAT: (50I10)             

 AQUIFER HEAD WILL BE SET TO  -999.99     AT ALL NO-FLOW NODES (IBOUND=0).



                       INITIAL HEAD FOR LAYER   1
 READING ON UNIT   13 WITH FORMAT: (50E15.6)           



                       INITIAL HEAD FOR LAYER   2
 READING ON UNIT   13 WITH FORMAT: (50E15.6)           



                       INITIAL HEAD FOR LAYER   3
 READING ON UNIT   13 WITH FORMAT: (50E15.6)           
 # OC package for MODFLOW-2005 generated by Flopy 3.9.5

 OUTPUT CONTROL IS SPECIFIED ONLY AT TIME STEPS FOR WHICH OUTPUT IS DESIRED
 COMPACT CELL-BY-CELL BUDGET FILES WILL BE WRITTEN
 AUXILIARY DATA WILL BE SAVED IN CELL-BY-CELL BUDGET FILES
 HEAD PRINT FORMAT CODE IS   0    DRAWDOWN PRINT FORMAT CODE IS   0
 HEADS WILL BE SAVED ON UNIT   51    DRAWDOWNS WILL BE SAVED ON UNIT   52

 LPF -- LAYER-PROPERTY FLOW PACKAGE, VERSION 7, 5/2/2005
         INPUT READ FROM UNIT   15
 # LPF package for MODFLOW-2005 generated by Flopy 3.9.5
 CELL-BY-CELL FLOWS WILL BE SAVED ON UNIT   53
 HEAD AT CELLS THAT CONVERT TO DRY= -1.00000E+30
 No named parameters
 STORAGECOEFFICIENT OPTION:
 Read storage coefficient rather than specific storage

   LAYER FLAGS:
 LAYER       LAYTYP        LAYAVG         CHANI        LAYVKA        LAYWET
 ---------------------------------------------------------------------------
    1             1             0     1.000E+00             0             0
    2             1             0     1.000E+00             0             0
    3             1             0     1.000E+00             0             0

   INTERPRETATION OF LAYER FLAGS:
                        INTERBLOCK     HORIZONTAL    DATA IN
         LAYER TYPE   TRANSMISSIVITY   ANISOTROPY   ARRAY VKA   WETTABILITY
 LAYER      (LAYTYP)      (LAYAVG)       (CHANI)      (LAYVKA)      (LAYWET)
 ---------------------------------------------------------------------------
    1   CONVERTIBLE      HARMONIC     1.000E+00    VERTICAL K  NON-WETTABLE
    2   CONVERTIBLE      HARMONIC     1.000E+00    VERTICAL K  NON-WETTABLE
    3   CONVERTIBLE      HARMONIC     1.000E+00    VERTICAL K  NON-WETTABLE

 WETTING CAPABILITY IS NOT ACTIVE IN ANY LAYER



              HYD. COND. ALONG ROWS FOR LAYER   1
 READING ON UNIT   15 WITH FORMAT: (50E15.6)           



                VERTICAL HYD. COND. FOR LAYER   1
 READING ON UNIT   15 WITH FORMAT: (50E15.6)           



              HYD. COND. ALONG ROWS FOR LAYER   2
 READING ON UNIT   15 WITH FORMAT: (50E15.6)           



                VERTICAL HYD. COND. FOR LAYER   2
 READING ON UNIT   15 WITH FORMAT: (50E15.6)           



              HYD. COND. ALONG ROWS FOR LAYER   3
 READING ON UNIT   15 WITH FORMAT: (50E15.6)           



                VERTICAL HYD. COND. FOR LAYER   3
 READING ON UNIT   15 WITH FORMAT: (50E15.6)           

 WEL -- WELL PACKAGE, VERSION 7, 5/2/2005 INPUT READ FROM UNIT   20
 # WEL package for MODFLOW-2005 generated by Flopy 3.9.5
 No named parameters
 MAXIMUM OF      3 ACTIVE WELLS AT ONE TIME


     0 Well parameters

 RIV -- RIVER PACKAGE, VERSION 7, 5/2/2005 INPUT READ FROM UNIT   18
 # RIV package for MODFLOW-2005 generated by Flopy 3.9.5
 No named parameters
 MAXIMUM OF     49 ACTIVE RIVER REACHES AT ONE TIME
 CELL-BY-CELL FLOWS WILL BE SAVED ON UNIT   53


     0 River parameters

 EVT -- EVAPOTRANSPIRATION PACKAGE, VERSION 7, 5/2/2005
         INPUT READ FROM UNIT   22
 # EVT package for MODFLOW-2005 generated by Flopy 3.9.5
 No named parameters
 OPTION 3 -- EVAPOTRANSPIRATION FROM HIGHEST ACTIVE NODE IN EACH VERTICAL COLUMN
 CELL-BY-CELL FLOWS WILL BE SAVED ON UNIT   53


     0 Evapotranspiration parameters

 RCH -- RECHARGE PACKAGE, VERSION 7, 5/2/2005 INPUT READ FROM UNIT   19
 # RCH package for MODFLOW-2005 generated by Flopy 3.9.5
 No named parameters
 OPTION 3 -- RECHARGE TO HIGHEST ACTIVE NODE IN EACH VERTICAL COLUMN
 CELL-BY-CELL FLOWS WILL BE SAVED ON UNIT   53


     0 Recharge parameters

 PCG -- CONJUGATE-GRADIENT SOLUTION PACKAGE, VERSION 7, 5/2/2005
 # PCG package for MODFLOW-2005 generated by Flopy 3.9.5
 MAXIMUM OF   5000 CALLS OF SOLUTION ROUTINE
 MAXIMUM OF    500 INTERNAL ITERATIONS PER CALL TO SOLUTION ROUTINE
 MATRIX PRECONDITIONING TYPE :    1



                                    SOLUTION BY THE CONJUGATE-GRADIENT METHOD
                                   -------------------------------------------
                    MAXIMUM NUMBER OF CALLS TO PCG ROUTINE =     5000
                        MAXIMUM ITERATIONS PER CALL TO PCG =      500
                               MATRIX PRECONDITIONING TYPE =        1
        RELAXATION FACTOR (ONLY USED WITH PRECOND. TYPE 1) =    0.97000E+00
 PARAMETER OF POLYNOMIAL PRECOND. = 2 (2) OR IS CALCULATED :        0
                         HEAD CHANGE CRITERION FOR CLOSURE =    0.10000E-04
                     RESIDUAL CHANGE CRITERION FOR CLOSURE =    0.10000E-04
            PCG HEAD AND RESIDUAL CHANGE PRINTOUT INTERVAL =      999
     PRINTING FROM SOLVER IS LIMITED(1) OR SUPPRESSED (>1) =        3
                            STEADY-STATE DAMPING PARAMETER =    0.10000E-01
                               TRANSIENT DAMPING PARAMETER =    0.10000E-01
1
                            STRESS PERIOD NO.    1, LENGTH =   1.000000    
                            -----------------------------------------------

                              NUMBER OF TIME STEPS =     1

                               MULTIPLIER FOR DELT =     1.000

                            INITIAL TIME STEP SIZE =   1.000000    

 WELL NO.  LAYER   ROW   COL   STRESS RATE         
 --------------------------------------------------
      1      3     22     39      -1500.    
      2      1     13     15       0.000    
      3      1     25     26       375.0    

      3 WELLS

 REACH NO.  LAYER   ROW   COL     STAGE      CONDUCTANCE     BOTTOM EL.         
 -------------------------------------------------------------------------------
      1      1     25      2       100.5          0.1000E+06       98.00    
      2      1     25      3       99.50          0.1000E+06       97.00    
      3      1     25      4       98.50          0.1000E+06       96.00    
      4      1     25      5       97.50          0.1000E+06       95.00    
      5      1     25      6       96.50          0.1000E+06       94.00    
      6      1     25      7       95.50          0.1000E+06       93.00    
      7      1     25      8       94.50          0.1000E+06       92.00    
      8      1     25      9       93.50          0.1000E+06       91.00    
      9      1     25     10       92.50          0.1000E+06       90.00    
     10      1     25     11       91.50          0.1000E+06       89.00    
     11      1     25     12       90.50          0.1000E+06       88.00    
     12      1     25     13       89.50          0.1000E+06       87.00    
     13      1     25     14       88.50          0.1000E+06       86.00    
     14      1     25     15       87.50          0.1000E+06       85.00    
     15      1     25     16       86.50          0.1000E+06       84.00    
     16      1     25     17       85.50          0.1000E+06       83.00    
     17      1     25     18       84.50          0.1000E+06       82.00    
     18      1     25     19       83.50          0.1000E+06       81.00    
     19      1     25     20       82.50          0.1000E+06       80.00    
     20      1     25     21       81.50          0.1000E+06       79.00    
     21      1     25     22       80.50          0.1000E+06       78.00    
     22      1     25     23       79.50          0.1000E+06       77.00    
     23      1     25     24       78.50          0.1000E+06       76.00    
     24      1     25     25       77.50          0.1000E+06       75.00    
     25      1     25     26       77.40          0.1000E+06       74.90    
     26      1     25     27       77.30          0.1000E+06       74.80    
     27      1     25     28       77.20          0.1000E+06       74.70    
     28      1     25     29       77.10          0.1000E+06       74.60    
     29      1     25     30       77.00          0.1000E+06       74.50    
     30      1     25     31       76.90          0.1000E+06       74.40    
     31      1     25     32       76.80          0.1000E+06       74.30    
     32      1     25     33       76.70          0.1000E+06       74.20    
     33      1     25     34       76.60          0.1000E+06       74.10    
     34      1     25     35       76.50          0.1000E+06       74.00    
     35      1     25     36       76.40          0.1000E+06       73.90    
     36      1     25     37       76.30          0.1000E+06       73.80    
     37      1     25     38       76.20          0.1000E+06       73.70    
     38      1     25     39       76.10          0.1000E+06       73.60    
     39      1     25     40       76.00          0.1000E+06       73.50    
     40      1     25     41       75.90          0.1000E+06       73.40    
     41      1     25     42       75.80          0.1000E+06       73.30    
     42      1     25     43       75.70          0.1000E+06       73.20    
     43      1     25     44       75.60          0.1000E+06       73.10    
     44      1     25     45       75.50          0.1000E+06       73.00    
     45      1     25     46       75.40          0.1000E+06       72.90    
     46      1     25     47       75.30          0.1000E+06       72.80    
     47      1     25     48       75.20          0.1000E+06       72.70    
     48      1     25     49       75.10          0.1000E+06       72.60    
     49      1     25     50       75.00          0.1000E+06       72.50    

     49 RIVER REACHES



                         ET SURFACE
 READING ON UNIT   22 WITH FORMAT: (50E15.6)           



            EVAPOTRANSPIRATION RATE
 READING ON UNIT   22 WITH FORMAT: (50E15.6)           

         EXTINCTION DEPTH =   10.0000    



                           RECHARGE
 READING ON UNIT   19 WITH FORMAT: (50E15.6)           
 
 SOLVING FOR HEAD 

 OUTPUT CONTROL FOR STRESS PERIOD    1   TIME STEP    1
    SAVE HEAD FOR ALL LAYERS
    SAVE DRAWDOWN FOR ALL LAYERS
    SAVE BUDGET
    PRINT HEAD FOR ALL LAYERS
    PRINT BUDGET
 UBDSV2 SAVING "   CONSTANT HEAD" ON UNIT  53 AT TIME STEP  1, STRESS PERIOD   1
 UBDSV1 SAVING "FLOW RIGHT FACE " ON UNIT  53 AT TIME STEP  1, STRESS PERIOD   1
 UBDSV1 SAVING "FLOW FRONT FACE " ON UNIT  53 AT TIME STEP  1, STRESS PERIOD   1
 UBDSV1 SAVING "FLOW LOWER FACE " ON UNIT  53 AT TIME STEP  1, STRESS PERIOD   1
 UBDSV4 SAVING "   RIVER LEAKAGE" ON UNIT  53 AT TIME STEP  1, STRESS PERIOD   1
 UBDSV3 SAVING "              ET" ON UNIT  53 AT TIME STEP  1, STRESS PERIOD   1
 UBDSV3 SAVING "        RECHARGE" ON UNIT  53 AT TIME STEP  1, STRESS PERIOD   1
1
              HEAD IN LAYER   1 AT END OF TIME STEP   1 IN STRESS PERIOD    1
  ---------------------------------------------------------------------------

            1           2           3           4           5           6           7           8           9          10
           11          12          13          14          15          16          17          18          19          20
           21          22          23          24          25          26          27          28          29          30
           31          32          33          34          35          36          37          38          39          40
           41          42          43          44          45          46          47          48          49          50
 ........................................................................................................................
   1  -1000.0     -1000.0     -1000.0     -1000.0     -1000.0     -1000.0     -1000.0     -1000.0     -1000.0     -1000.0    
      -1000.0     -1000.0     -1000.0     -1000.0     -1000.0     -1000.0     -1000.0     -1000.0     -1000.0     -1000.0    
      -1000.0     -1000.0     -1000.0     -1000.0     -1000.0     -1000.0     -1000.0     -1000.0     -1000.0     -1000.0    
      -1000.0     -1000.0     -1000.0     -1000.0     -1000.0     -1000.0     -1000.0     -1000.0     -1000.0     -1000.0    
      -1000.0     -1000.0     -1000.0     -1000.0     -1000.0     -1000.0     -1000.0     -1000.0     -1000.0       70.00    
   2  -1000.0     -1000.0     -1000.0     -1000.0     -1000.0       87.48       87.37       87.19       86.98       86.73    
        86.53       86.28       86.00       85.69       85.36       85.01       84.64       84.27       83.88       83.48    
        83.09       82.69       82.29       81.88       81.47       81.05       80.63       80.21       79.78       79.35    
        78.92       78.49       78.05       77.61       77.17       76.73       76.29       75.84       75.38       74.93    
        74.46       74.00       73.52       73.04       72.56       72.06       71.56       71.05       70.53       70.00    
   3  -1000.0     -1000.0     -1000.0     -1000.0       87.72       87.58       87.42       87.23       87.00       86.79    
        86.56       86.31       86.02       85.71       85.38       85.02       84.65       84.27       83.88       83.48    
        83.09       82.70       82.29       81.88       81.47       81.05       80.63       80.21       79.78       79.35    
        78.92       78.49       78.05       77.61       77.17       76.73       76.29       75.84       75.38       74.93    
        74.47       74.00       73.52       73.04       72.56       72.06       71.56       71.05       70.53       70.00    
   4  -1000.0     -1000.0     -1000.0       88.00       87.85       87.69       87.51       87.29       87.09       86.87    
        86.62       86.36       86.06       85.75       85.41       85.05       84.67       84.29       83.90       83.50    
        83.10       82.70       82.30       81.89       81.47       81.05       80.63       80.20       79.78       79.35    
        78.91       78.48       78.05       77.61       77.17       76.73       76.28       75.84       75.38       74.93    
        74.47       74.00       73.53       73.05       72.56       72.07       71.56       71.05       70.53       70.00    
   5  -1000.0     -1000.0       88.28       88.13       87.98       87.81       87.61       87.41       87.20       86.96    
        86.70       86.42       86.12       85.79       85.45       85.08       84.70       84.32       83.92       83.51    
        83.12       82.71       82.30       81.89       81.47       81.05       80.62       80.20       79.77       79.34    
        78.91       78.48       78.04       77.61       77.17       76.73       76.28       75.83       75.38       74.93    
        74.47       74.00       73.53       73.05       72.56       72.07       71.57       71.05       70.53       70.00    
   6  -1000.0       88.51       88.40       88.27       88.12       87.94       87.75       87.54       87.31       87.07    
        86.80       86.50       86.19       85.86       85.50       85.13       84.74       84.35       83.94       83.53    
        83.13       82.72       82.31       81.89       81.47       81.05       80.62       80.19       79.76       79.33    
        78.90       78.47       78.03       77.60       77.16       76.72       76.28       75.83       75.38       74.93    
        74.47       74.00       73.53       73.05       72.57       72.07       71.57       71.06       70.53       70.00    
   7  -1000.0       88.61       88.54       88.42       88.27       88.10       87.90       87.68       87.45       87.19    
        86.90       86.60       86.28       85.93       85.57       85.18       84.79       84.39       83.98       83.56    
        83.15       82.74       82.32       81.90       81.47       81.04       80.61       80.18       79.75       79.32    
        78.89       78.46       78.02       77.59       77.15       76.72       76.28       75.83       75.38       74.93    
        74.47       74.01       73.54       73.06       72.57       72.08       71.57       71.06       70.53       70.00    
   8  -1000.0       88.77       88.71       88.60       88.44       88.27       88.07       87.84       87.59       87.32    
        87.03       86.71       86.38       86.02       85.64       85.25       84.85       84.43       84.01       83.59    
        83.17       82.75       82.32       81.90       81.47       81.03       80.60       80.17       79.74       79.31    
        78.87       78.44       78.01       77.58       77.15       76.71       76.27       75.83       75.38       74.93    
        74.48       74.01       73.54       73.07       72.58       72.08       71.58       71.06       70.54       70.00    
   9  -1000.0       88.96       88.91       88.78       88.63       88.45       88.25       88.01       87.76       87.47    
        87.17       86.84       86.49       86.12       85.73       85.32       84.91       84.48       84.05       83.62    
        83.19       82.76       82.33       81.89       81.46       81.02       80.59       80.15       79.72       79.29    
        78.86       78.43       78.00       77.57       77.14       76.70       76.27       75.83       75.39       74.94    
        74.48       74.02       73.55       73.08       72.59       72.09       71.59       71.07       70.54       70.00    
  10  -1000.0       89.19       89.11       88.99       88.84       88.66       88.45       88.21       87.94       87.64    
        87.32       86.98       86.61       86.23       85.82       85.40       84.98       84.54       84.10       83.65    
        83.22       82.78       82.33       81.89       81.45       81.01       80.57       80.13       79.70       79.26    
        78.83       78.40       77.98       77.55       77.12       76.69       76.26       75.83       75.39       74.94    
        74.49       74.03       73.57       73.09       72.60       72.10       71.60       71.08       70.54       70.00    
  11  -1000.0       89.40       89.33       89.23       89.08       88.89       88.67       88.42       88.14       87.83    
        87.49       87.13       86.75       86.35       85.93       85.49       85.05       84.60       84.14       83.69    
        83.24       82.78       82.33       81.88       81.43       80.98       80.54       80.10       79.66       79.23    
        78.80       78.38       77.95       77.53       77.11       76.68       76.26       75.83       75.39       74.95    
        74.50       74.05       73.58       73.11       72.62       72.12       71.61       71.09       70.55       70.00    
  12  -1000.0       89.65       89.60       89.49       89.34       89.15       88.92       88.66       88.36       88.03    
        87.68       87.30       86.90       86.48       86.04       85.59       85.12       84.66       84.19       83.72    
        83.25       82.79       82.32       81.86       81.40       80.95       80.50       80.06       79.63       79.19    
        78.77       78.35       77.93       77.51       77.09       76.67       76.25       75.83       75.40       74.96    
        74.52       74.07       73.60       73.13       72.64       72.14       71.63       71.10       70.56       70.00    
  13  -1000.0       89.96       89.91       89.80       89.65       89.44       89.20       88.92       88.60       88.26    
        87.88       87.48       87.06       86.62       86.16       85.68       85.20       84.72       84.23       83.75    
        83.27       82.79       82.31       81.84       81.37       80.91       80.46       80.01       79.58       79.15    
        78.72       78.31       77.89       77.48       77.07       76.66       76.24       75.83       75.41       74.98    
        74.54       74.09       73.63       73.16       72.67       72.17       71.65       71.12       70.57       70.00    
  14  -1000.0       90.32       90.26       90.15       89.98       89.77       89.51       89.21       88.87       88.50    
        88.10       87.68       87.23       86.76       86.28       85.78       85.28       84.78       84.28       83.78    
        83.27       82.78       82.28       81.80       81.32       80.85       80.40       79.95       79.51       79.09    
        78.67       78.26       77.85       77.45       77.04       76.64       76.24       75.83       75.42       75.00    
        74.57       74.13       73.67       73.20       72.71       72.21       71.68       71.14       70.58       70.00    
  15  -1000.0       90.73       90.66       90.54       90.36       90.13       89.85       89.53       89.17       88.77    
        88.34       87.89       87.41       86.92       86.41       85.89       85.36       84.84       84.31       83.79    
        83.27       82.75       82.24       81.74       81.25       80.78       80.32       79.87       79.44       79.02    
        78.60       78.20       77.80       77.41       77.02       76.63       76.23       75.84       75.44       75.03    
        74.60       74.17       73.72       73.25       72.77       72.26       71.72       71.17       70.59       70.00    
  16  -1000.0       91.19       91.12       90.99       90.79       90.54       90.23       89.88       89.49       89.06    
        88.60       88.11       87.60       87.08       86.54       85.99       85.44       84.89       84.34       83.80    
        83.25       82.71       82.18       81.67       81.17       80.69       80.22       79.78       79.35       78.93    
        78.53       78.13       77.74       77.36       76.98       76.61       76.23       75.85       75.46       75.06    
        74.65       74.23       73.79       73.32       72.84       72.32       71.78       71.21       70.62       70.00    
  17  -1000.0       91.71       91.63       91.48       91.26       90.98       90.65       90.26       89.83       89.37    
        88.87       88.35       87.81       87.25       86.67       86.09       85.51       84.93       84.36       83.80    
        83.22       82.66       82.10       81.57       81.06       80.57       80.10       79.66       79.23       78.82    
        78.43       78.05       77.68       77.31       76.95       76.59       76.23       75.86       75.49       75.11    
        74.71       74.30       73.87       73.41       72.93       72.41       71.86       71.27       70.65       70.00    
  18  -1000.0       92.30       92.21       92.04       91.79       91.48       91.10       90.68       90.21       89.70    
        89.16       88.60       88.01       87.41       86.81       86.19       85.57       84.97       84.37       83.79    
        83.17       82.57       81.99       81.44       80.91       80.42       79.95       79.51       79.09       78.70    
        78.32       77.95       77.60       77.25       76.91       76.57       76.22       75.88       75.52       75.16    
        74.79       74.39       73.97       73.53       73.05       72.52       71.96       71.35       70.69       70.00    
  19  -1000.0       92.96       92.86       92.66       92.38       92.02       91.60       91.13       90.61       90.05    
        89.46       88.85       88.23       87.58       86.93       86.28       85.63       84.99       84.36       83.75    
        83.09       82.46       81.85       81.27       80.73       80.23       79.76       79.33       78.93       78.55    
        78.19       77.84       77.51       77.18       76.86       76.55       76.23       75.90       75.57       75.23    
        74.88       74.50       74.10       73.67       73.20       72.68       72.10       71.46       70.75       70.00    
  20  -1000.0       93.72       93.60       93.36       93.03       92.62       92.14       91.61       91.03       90.42    
        89.78       89.12       88.44       87.75       87.06       86.36       85.67       84.99       84.33       83.69    
        82.98       82.30       81.66       81.06       80.50       79.99       79.53       79.12       78.73       78.37    
        78.04       77.72       77.41       77.11       76.81       76.52       76.23       75.93       75.63       75.32    
        74.99       74.64       74.27       73.86       73.40       72.89       72.30       71.62       70.85       70.00    
  21  -1000.0       94.58       94.43       94.15       93.75       93.27       92.72       92.12       91.48       90.81    
        90.11       89.39       88.66       87.92       87.17       86.42       85.69       84.96       84.27       83.60    
        82.83       82.10       81.41       80.78       80.21       79.70       79.25       78.85       78.50       78.17    
        77.86       77.57       77.30       77.03       76.76       76.50       76.24       75.97       75.70       75.42    
        75.12       74.81       74.47       74.09       73.66       73.17       72.57       71.85       70.99       70.00    
  22  -1000.0       95.58       95.38       95.03       94.55       93.98       93.35       92.67       91.95       91.21    
        90.44       89.66       88.87       88.07       87.27       86.47       85.68       84.91       84.17       83.47    
        82.63       81.84       81.10       80.42       79.83       79.32       78.90       78.54       78.22       77.93    
        77.66       77.41       77.17       76.93       76.70       76.47       76.25       76.02       75.78       75.54    
        75.28       75.01       74.71       74.38       74.00       73.54       72.96       72.21       71.23       70.00    
  23  -1000.0       96.76       96.48       96.01       95.41       94.74       94.00       93.23       92.43       91.62    
        90.78       89.94       89.08       88.22       87.36       86.50       85.65       84.83       84.03       83.29    
        82.36       81.50       80.69       79.96       79.33       78.85       78.47       78.16       77.90       77.66    
        77.44       77.23       77.03       76.83       76.64       76.45       76.26       76.07       75.87       75.67    
        75.46       75.24       75.00       74.73       74.41       74.02       73.51       72.78       71.68       70.00    
  24  -1000.0       98.20       97.75       97.10       96.34       95.53       94.68       93.81       92.92       92.02    
        91.12       90.20       89.28       88.36       87.43       86.51       85.60       84.70       83.83       83.03    
        82.01       81.07       80.17       79.35       78.64       78.23       77.95       77.73       77.53       77.36    
        77.19       77.03       76.87       76.72       76.57       76.43       76.28       76.13       75.98       75.82    
        75.66       75.50       75.32       75.13       74.91       74.64       74.27       73.70       72.61       70.00    
  25  -1000.0       100.0       99.21       98.27       97.31       96.34       95.37       94.39       93.41       92.43    
        91.44       90.45       89.47       88.48       87.49       86.50       85.51       84.53       83.55       82.61    
        81.54       80.54       79.54       78.55       77.59       77.45       77.34       77.23       77.13       77.02    
        76.92       76.81       76.71       76.61       76.50       76.40       76.30       76.20       76.09       75.99    
        75.89       75.78       75.68       75.57       75.47       75.36       75.24       75.11       74.85       70.00    
  26  -1000.0       98.19       97.74       97.09       96.33       95.52       94.67       93.80       92.91       92.01    
        91.11       90.19       89.27       88.35       87.43       86.51       85.59       84.69       83.83       83.03    
        82.01       81.06       80.17       79.34       78.63       78.22       77.95       77.72       77.53       77.35    
        77.19       77.03       76.87       76.72       76.57       76.42       76.28       76.13       75.97       75.82    
        75.66       75.49       75.32       75.12       74.90       74.63       74.27       73.70       72.61       70.00    
  27  -1000.0       96.74       96.46       95.99       95.39       94.71       93.98       93.21       92.41       91.60    
        90.76       89.92       89.07       88.21       87.35       86.49       85.64       84.82       84.03       83.29    
        82.37       81.50       80.70       79.96       79.33       78.85       78.47       78.17       77.90       77.66    
        77.44       77.23       77.03       76.83       76.64       76.45       76.26       76.06       75.87       75.66    
        75.45       75.23       74.99       74.72       74.40       74.01       73.50       72.78       71.68       70.00    
  28  -1000.0       95.55       95.35       94.99       94.51       93.95       93.32       92.64       91.92       91.18    
        90.42       89.64       88.85       88.05       87.25       86.45       85.67       84.90       84.16       83.46    
        82.63       81.85       81.11       80.43       79.83       79.33       78.90       78.54       78.22       77.93    
        77.66       77.41       77.17       76.93       76.70       76.47       76.24       76.01       75.77       75.53    
        75.27       75.00       74.70       74.37       73.99       73.53       72.95       72.21       71.23       70.00    
  29  -1000.0       94.54       94.39       94.10       93.71       93.23       92.68       92.08       91.44       90.77    
        90.07       89.36       88.63       87.89       87.14       86.40       85.66       84.94       84.25       83.58    
        82.83       82.10       81.42       80.79       80.21       79.70       79.25       78.85       78.49       78.17    
        77.86       77.57       77.29       77.02       76.76       76.49       76.23       75.96       75.69       75.41    
        75.12       74.80       74.46       74.08       73.66       73.16       72.56       71.85       70.99       70.00    
  30  -1000.0       93.66       93.54       93.31       92.98       92.57       92.09       91.56       90.98       90.37    
        89.74       89.08       88.40       87.71       87.02       86.32       85.63       84.96       84.30       83.67    
        82.97       82.30       81.66       81.06       80.50       79.99       79.53       79.11       78.72       78.37    
        78.03       77.71       77.40       77.10       76.81       76.51       76.22       75.92       75.62       75.31    
        74.98       74.63       74.26       73.85       73.40       72.88       72.29       71.61       70.84       70.00    
  31  -1000.0       92.90       92.79       92.60       92.32       91.96       91.54       91.06       90.55       89.99    
        89.41       88.80       88.18       87.54       86.89       86.24       85.59       84.95       84.33       83.72    
        83.07       82.44       81.83       81.26       80.72       80.22       79.75       79.32       78.92       78.54    
        78.18       77.83       77.50       77.17       76.85       76.53       76.22       75.89       75.56       75.22    
        74.87       74.49       74.10       73.67       73.19       72.67       72.10       71.45       70.75       70.00    
  32  -1000.0       92.22       92.13       91.96       91.72       91.40       91.03       90.60       90.14       89.63    
        89.10       88.53       87.95       87.36       86.75       86.14       85.53       84.92       84.33       83.75    
        83.14       82.54       81.97       81.42       80.90       80.40       79.93       79.49       79.08       78.68    
        78.30       77.94       77.59       77.24       76.90       76.55       76.21       75.87       75.51       75.15    
        74.78       74.38       73.96       73.52       73.04       72.52       71.95       71.34       70.69       70.00    
  33  -1000.0       91.62       91.54       91.39       91.18       90.90       90.56       90.18       89.75       89.29    
        88.80       88.28       87.74       87.18       86.61       86.03       85.46       84.88       84.31       83.76    
        83.18       82.62       82.07       81.54       81.03       80.54       80.08       79.63       79.21       78.80    
        78.41       78.03       77.66       77.29       76.93       76.57       76.21       75.85       75.47       75.09    
        74.70       74.29       73.86       73.40       72.92       72.40       71.85       71.27       70.65       70.00    
  34  -1000.0       91.08       91.02       90.88       90.69       90.44       90.14       89.79       89.40       88.97    
        88.51       88.03       87.53       87.01       86.47       85.92       85.38       84.83       84.29       83.75    
        83.21       82.67       82.14       81.63       81.13       80.65       80.19       79.75       79.32       78.90    
        78.50       78.11       77.72       77.34       76.97       76.59       76.21       75.83       75.44       75.05    
        74.64       74.22       73.78       73.31       72.83       72.32       71.78       71.21       70.61       70.00    
  35  -1000.0       90.61       90.55       90.43       90.25       90.02       89.75       89.43       89.07       88.67    
        88.25       87.80       87.33       86.84       86.33       85.81       85.29       84.77       84.25       83.73    
        83.21       82.70       82.19       81.70       81.21       80.74       80.28       79.84       79.41       78.99    
        78.58       78.17       77.78       77.38       76.99       76.61       76.21       75.82       75.42       75.01    
        74.59       74.16       73.71       73.25       72.76       72.25       71.72       71.17       70.59       70.00    
  36  -1000.0       90.18       90.13       90.02       89.86       89.65       89.39       89.09       88.76       88.40    
        88.00       87.58       87.13       86.67       86.19       85.70       85.20       84.70       84.20       83.71    
        83.21       82.72       82.23       81.74       81.27       80.81       80.35       79.91       79.48       79.05    
        78.64       78.23       77.82       77.42       77.02       76.62       76.22       75.81       75.40       74.98    
        74.55       74.11       73.66       73.19       72.71       72.20       71.68       71.14       70.58       70.00    
  37  -1000.0       89.81       89.76       89.66       89.50       89.31       89.07       88.79       88.48       88.14    
        87.77       87.37       86.95       86.51       86.06       85.59       85.11       84.64       84.15       83.67    
        83.20       82.72       82.25       81.78       81.31       80.86       80.41       79.97       79.53       79.11    
        78.69       78.27       77.86       77.45       77.04       76.63       76.22       75.81       75.39       74.96    
        74.53       74.08       73.62       73.15       72.66       72.16       71.65       71.11       70.56       70.00    
  38  -1000.0       89.48       89.43       89.33       89.19       89.00       88.78       88.52       88.23       87.91    
        87.55       87.18       86.78       86.37       85.93       85.48       85.03       84.57       84.10       83.64    
        83.18       82.71       82.25       81.80       81.34       80.89       80.45       80.01       79.58       79.15    
        78.73       78.31       77.89       77.48       77.06       76.64       76.23       75.80       75.38       74.94    
        74.50       74.05       73.59       73.12       72.63       72.13       71.62       71.09       70.55       70.00    
  39  -1000.0       89.20       89.15       89.05       88.91       88.73       88.52       88.27       88.00       87.69    
        87.36       87.00       86.62       86.23       85.81       85.38       84.94       84.50       84.05       83.60    
        83.15       82.70       82.26       81.81       81.36       80.92       80.48       80.05       79.61       79.19    
        78.76       78.34       77.92       77.50       77.08       76.65       76.23       75.80       75.37       74.93    
        74.49       74.03       73.57       73.10       72.61       72.11       71.60       71.08       70.55       70.00    
  40  -1000.0       88.96       88.90       88.80       88.66       88.49       88.28       88.05       87.79       87.49    
        87.18       86.84       86.48       86.10       85.70       85.28       84.86       84.43       83.99       83.55    
        83.12       82.69       82.25       81.81       81.38       80.94       80.50       80.07       79.64       79.21    
        78.79       78.36       77.94       77.51       77.09       76.66       76.23       75.80       75.37       74.92    
        74.47       74.02       73.55       73.08       72.59       72.10       71.59       71.07       70.54       70.00    
  41  -1000.0       88.77       88.69       88.58       88.44       88.27       88.07       87.85       87.59       87.32    
        87.01       86.69       86.34       85.98       85.60       85.19       84.78       84.37       83.94       83.51    
        83.09       82.67       82.24       81.81       81.38       80.95       80.52       80.09       79.66       79.23    
        78.81       78.38       77.95       77.53       77.10       76.67       76.24       75.80       75.36       74.92    
        74.46       74.00       73.54       73.06       72.58       72.08       71.58       71.06       70.54       70.00    
  42  -1000.0       88.55       88.50       88.39       88.24       88.08       87.88       87.66       87.42       87.16    
        86.87       86.55       86.22       85.87       85.50       85.11       84.71       84.31       83.89       83.48    
        83.07       82.65       82.23       81.81       81.38       80.96       80.53       80.10       79.68       79.25    
        78.82       78.40       77.97       77.54       77.11       76.68       76.24       75.80       75.36       74.91    
        74.46       74.00       73.53       73.05       72.57       72.07       71.57       71.06       70.53       70.00    
  43  -1000.0       88.37       88.32       88.21       88.07       87.90       87.71       87.50       87.27       87.01    
        86.73       86.43       86.11       85.77       85.41       85.04       84.65       84.25       83.85       83.44    
        83.04       82.63       82.22       81.80       81.38       80.96       80.54       80.11       79.69       79.26    
        78.84       78.41       77.98       77.55       77.12       76.68       76.24       75.80       75.36       74.91    
        74.45       73.99       73.52       73.04       72.56       72.07       71.57       71.05       70.53       70.00    
  44  -1000.0       88.23       88.16       88.05       87.91       87.74       87.56       87.35       87.13       86.88    
        86.61       86.33       86.02       85.69       85.34       84.97       84.59       84.21       83.81       83.41    
        83.01       82.61       82.21       81.79       81.38       80.96       80.54       80.12       79.70       79.27    
        78.84       78.42       77.99       77.56       77.12       76.69       76.25       75.80       75.36       74.90    
        74.45       73.98       73.51       73.04       72.55       72.06       71.56       71.05       70.53       70.00    
  45  -1000.0       88.14       88.03       87.91       87.76       87.59       87.41       87.22       87.00       86.77    
        86.51       86.23       85.93       85.61       85.27       84.91       84.54       84.16       83.77       83.38    
        82.99       82.60       82.19       81.79       81.38       80.96       80.54       80.12       79.70       79.28    
        78.85       78.42       77.99       77.56       77.13       76.69       76.25       75.80       75.36       74.90    
        74.44       73.98       73.51       73.03       72.55       72.06       71.56       71.05       70.53       70.00    
  46  -1000.0     -1000.0       87.91       87.78       87.63       87.47       87.28       87.09       86.89       86.66    
        86.42       86.15       85.86       85.55       85.22       84.87       84.50       84.13       83.75       83.35    
        82.97       82.58       82.18       81.78       81.37       80.96       80.55       80.13       79.71       79.28    
        78.86       78.43       78.00       77.57       77.13       76.69       76.25       75.80       75.36       74.90    
        74.44       73.98       73.51       73.03       72.55       72.05       71.56       71.05       70.53       70.00    
  47  -1000.0     -1000.0     -1000.0       87.65       87.51       87.35       87.18       86.98       86.79       86.58    
        86.34       86.09       85.81       85.50       85.18       84.83       84.47       84.10       83.72       83.34    
        82.96       82.57       82.18       81.78       81.37       80.96       80.55       80.13       79.71       79.29    
        78.86       78.43       78.00       77.57       77.13       76.69       76.25       75.81       75.36       74.90    
        74.44       73.98       73.51       73.03       72.54       72.05       71.55       71.05       70.53       70.00    
  48  -1000.0     -1000.0     -1000.0     -1000.0       87.39       87.25       87.10       86.92       86.70       86.50    
        86.29       86.04       85.77       85.47       85.15       84.81       84.45       84.09       83.71       83.32    
        82.95       82.56       82.17       81.77       81.37       80.96       80.55       80.13       79.71       79.29    
        78.86       78.43       78.00       77.57       77.13       76.69       76.25       75.81       75.36       74.90    
        74.44       73.98       73.50       73.03       72.54       72.05       71.55       71.04       70.53       70.00    
  49  -1000.0     -1000.0     -1000.0     -1000.0     -1000.0       87.16       87.05       86.88       86.68       86.44    
        86.25       86.02       85.75       85.45       85.14       84.80       84.44       84.08       83.70       83.32    
        82.94       82.56       82.17       81.77       81.37       80.96       80.55       80.13       79.71       79.29    
        78.86       78.43       78.00       77.57       77.13       76.70       76.25       75.81       75.36       74.90    
        74.44       73.97       73.50       73.03       72.54       72.05       71.55       71.04       70.53       70.00    
  50  -1000.0     -1000.0     -1000.0     -1000.0     -1000.0     -1000.0     -1000.0     -1000.0     -1000.0     -1000.0    
      -1000.0     -1000.0     -1000.0     -1000.0     -1000.0     -1000.0     -1000.0     -1000.0     -1000.0     -1000.0    
      -1000.0     -1000.0     -1000.0     -1000.0     -1000.0     -1000.0     -1000.0     -1000.0     -1000.0     -1000.0    
      -1000.0     -1000.0     -1000.0     -1000.0     -1000.0     -1000.0     -1000.0     -1000.0     -1000.0     -1000.0    
      -1000.0     -1000.0     -1000.0     -1000.0     -1000.0     -1000.0     -1000.0     -1000.0     -1000.0       70.00    
1
              HEAD IN LAYER   2 AT END OF TIME STEP   1 IN STRESS PERIOD    1
  ---------------------------------------------------------------------------

            1           2           3           4           5           6           7           8           9          10
           11          12          13          14          15          16          17          18          19          20
           21          22          23          24          25          26          27          28          29          30
           31          32          33          34          35          36          37          38          39          40
           41          42          43          44          45          46          47          48          49          50
 ........................................................................................................................
   1  -1000.0     -1000.0     -1000.0     -1000.0     -1000.0     -1000.0     -1000.0     -1000.0     -1000.0     -1000.0    
      -1000.0     -1000.0     -1000.0     -1000.0     -1000.0     -1000.0     -1000.0     -1000.0     -1000.0     -1000.0    
      -1000.0     -1000.0     -1000.0     -1000.0     -1000.0     -1000.0     -1000.0     -1000.0     -1000.0     -1000.0    
      -1000.0     -1000.0     -1000.0     -1000.0     -1000.0     -1000.0     -1000.0     -1000.0     -1000.0     -1000.0    
      -1000.0     -1000.0     -1000.0     -1000.0     -1000.0     -1000.0     -1000.0     -1000.0     -1000.0       70.00    
   2  -1000.0     -1000.0     -1000.0     -1000.0     -1000.0     -1000.0     -1000.0       87.19       86.98       86.73    
        86.53       86.28       86.00       85.69       85.36       85.01       84.64       84.27       83.88       83.48    
        83.07       82.65       82.23       81.81       81.39       80.96       80.52       80.09       79.65       79.22    
        78.78       78.34       77.89       77.45       77.01       76.56       76.11       75.66       75.20       74.75    
        74.29       73.83       73.36       72.89       72.42       71.94       71.46       70.97       70.49       70.00    
   3  -1000.0     -1000.0     -1000.0     -1000.0     -1000.0     -1000.0       87.42       87.23       87.00       86.79    
        86.56       86.31       86.02       85.71       85.38       85.02       84.65       84.27       83.88       83.48    
        83.07       82.66       82.24       81.81       81.39       80.96       80.52       80.09       79.65       79.22    
        78.78       78.34       77.89       77.45       77.01       76.56       76.11       75.66       75.20       74.75    
        74.29       73.83       73.36       72.89       72.42       71.94       71.46       70.97       70.49       70.00    
   4  -1000.0     -1000.0     -1000.0     -1000.0     -1000.0       87.69       87.51       87.29       87.09       86.87    
        86.62       86.36       86.06       85.75       85.41       85.05       84.67       84.29       83.90       83.50    
        83.08       82.66       82.24       81.82       81.39       80.96       80.52       80.09       79.65       79.21    
        78.77       78.33       77.89       77.45       77.00       76.56       76.11       75.66       75.20       74.75    
        74.29       73.83       73.36       72.89       72.42       71.94       71.46       70.97       70.49       70.00    
   5  -1000.0     -1000.0     -1000.0     -1000.0       87.98       87.81       87.61       87.41       87.20       86.96    
        86.70       86.42       86.12       85.79       85.45       85.08       84.70       84.32       83.92       83.51    
        83.09       82.67       82.25       81.82       81.39       80.96       80.52       80.09       79.65       79.21    
        78.77       78.33       77.89       77.45       77.00       76.56       76.11       75.66       75.20       74.75    
        74.29       73.83       73.36       72.89       72.42       71.94       71.46       70.98       70.49       70.00    
   6  -1000.0     -1000.0     -1000.0       88.27       88.12       87.94       87.75       87.54       87.31       87.07    
        86.80       86.50       86.19       85.86       85.50       85.13       84.74       84.35       83.94       83.53    
        83.11       82.69       82.26       81.83       81.39       80.96       80.52       80.08       79.65       79.21    
        78.77       78.33       77.88       77.44       77.00       76.55       76.10       75.66       75.20       74.75    
        74.29       73.83       73.36       72.89       72.42       71.94       71.46       70.98       70.49       70.00    
   7  -1000.0     -1000.0       88.54       88.42       88.27       88.10       87.90       87.68       87.45       87.19    
        86.90       86.60       86.28       85.93       85.57       85.18       84.79       84.39       83.98       83.56    
        83.13       82.70       82.27       81.83       81.40       80.96       80.52       80.08       79.64       79.20    
        78.76       78.32       77.88       77.44       76.99       76.55       76.10       75.65       75.20       74.75    
        74.29       73.83       73.36       72.90       72.42       71.94       71.46       70.98       70.49       70.00    
   8  -1000.0       88.77       88.71       88.60       88.44       88.27       88.07       87.84       87.59       87.32    
        87.03       86.71       86.38       86.02       85.64       85.25       84.85       84.43       84.01       83.59    
        83.15       82.72       82.28       81.84       81.40       80.96       80.51       80.07       79.63       79.19    
        78.75       78.31       77.87       77.43       76.99       76.54       76.10       75.65       75.20       74.75    
        74.29       73.83       73.37       72.90       72.43       71.95       71.47       70.98       70.49       70.00    
   9  -1000.0       88.96       88.91       88.78       88.63       88.45       88.25       88.01       87.76       87.47    
        87.17       86.84       86.49       86.12       85.73       85.32       84.91       84.48       84.05       83.62    
        83.18       82.73       82.29       81.84       81.40       80.95       80.51       80.06       79.62       79.18    
        78.74       78.30       77.86       77.42       76.98       76.54       76.10       75.65       75.20       74.75    
        74.30       73.84       73.37       72.90       72.43       71.95       71.47       70.98       70.49       70.00    
  10  -1000.0       89.19       89.11       88.99       88.84       88.66       88.45       88.21       87.94       87.64    
        87.32       86.98       86.61       86.23       85.82       85.40       84.98       84.54       84.10       83.65    
        83.20       82.75       82.29       81.84       81.39       80.94       80.50       80.05       79.61       79.17    
        78.73       78.29       77.85       77.41       76.97       76.53       76.09       75.65       75.20       74.75    
        74.30       73.84       73.38       72.91       72.44       71.96       71.47       70.99       70.49       70.00    
  11  -1000.0       89.40       89.33       89.23       89.08       88.89       88.67       88.42       88.14       87.83    
        87.49       87.13       86.75       86.35       85.93       85.49       85.05       84.60       84.14       83.69    
        83.22       82.76       82.30       81.84       81.39       80.93       80.48       80.04       79.59       79.15    
        78.71       78.27       77.84       77.40       76.96       76.53       76.09       75.65       75.20       74.76    
        74.30       73.85       73.39       72.92       72.45       71.97       71.48       70.99       70.50       70.00    
  12  -1000.0       89.65       89.60       89.49       89.34       89.15       88.92       88.66       88.36       88.03    
        87.68       87.30       86.90       86.48       86.04       85.59       85.12       84.66       84.19       83.72    
        83.24       82.77       82.30       81.84       81.37       80.92       80.46       80.02       79.57       79.13    
        78.69       78.25       77.82       77.38       76.95       76.52       76.08       75.64       75.20       74.76    
        74.31       73.86       73.40       72.93       72.46       71.98       71.49       71.00       70.50       70.00    
  13  -1000.0       89.96       89.91       89.80       89.65       89.44       89.20       88.92       88.60       88.26    
        87.88       87.48       87.06       86.62       86.16       85.68       85.20       84.72       84.23       83.75    
        83.26       82.78       82.30       81.82       81.36       80.90       80.44       79.99       79.54       79.10    
        78.66       78.23       77.80       77.37       76.94       76.51       76.08       75.64       75.21       74.77    
        74.32       73.87       73.41       72.94       72.47       71.99       71.50       71.00       70.50       70.00    
  14  -1000.0       90.32       90.26       90.15       89.98       89.77       89.51       89.21       88.87       88.50    
        88.10       87.68       87.23       86.76       86.28       85.78       85.28       84.78       84.28       83.78    
        83.27       82.78       82.29       81.81       81.33       80.87       80.41       79.95       79.51       79.07    
        78.63       78.20       77.77       77.35       76.92       76.50       76.07       75.64       75.21       74.77    
        74.33       73.88       73.43       72.96       72.49       72.01       71.51       71.02       70.51       70.00    
  15  -1000.0       90.73       90.66       90.54       90.36       90.13       89.85       89.53       89.17       88.77    
        88.34       87.89       87.41       86.92       86.41       85.89       85.36       84.84       84.31       83.79    
        83.28       82.77       82.27       81.78       81.30       80.83       80.36       79.91       79.47       79.03    
        78.60       78.17       77.75       77.32       76.90       76.49       76.06       75.64       75.22       74.78    
        74.35       73.90       73.45       72.99       72.51       72.03       71.53       71.03       70.52       70.00    
  16  -1000.0       91.19       91.12       90.99       90.79       90.54       90.23       89.88       89.49       89.06    
        88.60       88.11       87.60       87.08       86.54       85.99       85.44       84.89       84.34       83.80    
        83.27       82.75       82.24       81.74       81.25       80.78       80.31       79.86       79.42       78.98    
        78.55       78.13       77.71       77.30       76.89       76.47       76.06       75.64       75.22       74.80    
        74.37       73.93       73.48       73.02       72.54       72.06       71.56       71.05       70.53       70.00    
  17  -1000.0       91.71       91.63       91.48       91.26       90.98       90.65       90.26       89.83       89.37    
        88.87       88.35       87.81       87.25       86.67       86.09       85.51       84.93       84.36       83.80    
        83.25       82.71       82.19       81.68       81.19       80.71       80.25       79.80       79.36       78.93    
        78.50       78.09       77.68       77.27       76.86       76.46       76.05       75.65       75.23       74.82    
        74.39       73.96       73.51       73.06       72.58       72.09       71.59       71.07       70.54       70.00    
  18  -1000.0       92.30       92.21       92.04       91.79       91.48       91.10       90.68       90.21       89.70    
        89.16       88.60       88.01       87.41       86.81       86.19       85.57       84.97       84.37       83.79    
        83.22       82.66       82.13       81.62       81.12       80.64       80.17       79.73       79.29       78.86    
        78.45       78.04       77.64       77.24       76.84       76.45       76.05       75.65       75.25       74.84    
        74.42       74.00       73.56       73.10       72.63       72.14       71.63       71.10       70.55       70.00    
  19  -1000.0       92.96       92.86       92.66       92.38       92.02       91.60       91.13       90.61       90.05    
        89.46       88.85       88.23       87.58       86.93       86.28       85.63       84.99       84.36       83.75    
        83.16       82.60       82.05       81.53       81.03       80.55       80.09       79.64       79.21       78.79    
        78.39       77.99       77.59       77.20       76.82       76.43       76.04       75.66       75.26       74.86    
        74.46       74.04       73.61       73.16       72.69       72.20       71.68       71.14       70.57       70.00    
  20  -1000.0       93.72       93.60       93.36       93.03       92.62       92.14       91.61       91.03       90.42    
        89.78       89.12       88.44       87.75       87.06       86.36       85.67       84.99       84.33       83.69    
        83.08       82.51       81.96       81.43       80.93       80.45       79.99       79.55       79.12       78.72    
        78.32       77.93       77.55       77.17       76.79       76.42       76.04       75.66       75.28       74.89    
        74.50       74.09       73.67       73.23       72.76       72.27       71.74       71.19       70.60       70.00    
  21  -1000.0       94.58       94.43       94.15       93.75       93.27       92.72       92.12       91.48       90.81    
        90.11       89.39       88.66       87.92       87.17       86.42       85.69       84.96       84.27       83.60    
        82.98       82.40       81.84       81.31       80.81       80.33       79.88       79.45       79.03       78.63    
        78.25       77.87       77.50       77.13       76.77       76.40       76.04       75.67       75.30       74.93    
        74.55       74.15       73.74       73.31       72.85       72.35       71.82       71.25       70.64       70.00    
  22  -1000.0       95.58       95.38       95.03       94.55       93.98       93.35       92.67       91.95       91.21    
        90.44       89.66       88.87       88.07       87.27       86.47       85.68       84.91       84.17       83.47    
        82.85       82.27       81.71       81.18       80.68       80.21       79.76       79.34       78.94       78.55    
        78.18       77.81       77.45       77.10       76.75       76.39       76.04       75.68       75.33       74.96    
        74.60       74.21       73.81       73.39       72.94       72.45       71.91       71.33       70.68       70.00    
  23  -1000.0       96.76       96.48       96.01       95.41       94.74       94.00       93.23       92.43       91.62    
        90.78       89.94       89.08       88.22       87.36       86.50       85.65       84.83       84.03       83.29    
        82.69       82.13       81.58       81.05       80.55       80.08       79.65       79.24       78.85       78.47    
        78.11       77.76       77.41       77.07       76.73       76.39       76.04       75.70       75.35       75.00    
        74.65       74.27       73.89       73.48       73.03       72.55       72.02       71.42       70.74       70.00    
  24  -1000.0       98.20       97.75       97.10       96.34       95.53       94.68       93.81       92.92       92.02    
        91.12       90.20       89.28       88.36       87.43       86.51       85.60       84.70       83.83       83.03    
        82.52       82.00       81.46       80.94       80.44       79.98       79.56       79.16       78.78       78.41    
        78.06       77.72       77.38       77.05       76.71       76.38       76.05       75.71       75.38       75.04    
        74.69       74.32       73.95       73.55       73.11       72.64       72.11       71.51       70.81       70.00    
  25  -1000.0       100.0       99.20       98.27       97.31       96.34       95.37       94.39       93.41       92.43    
        91.44       90.45       89.47       88.48       87.49       86.50       85.51       84.53       83.55       82.61    
        82.38       81.92       81.41       80.88       80.38       79.93       79.51       79.12       78.74       78.39    
        78.04       77.70       77.37       77.04       76.71       76.38       76.05       75.72       75.39       75.05    
        74.71       74.35       73.98       73.58       73.16       72.69       72.17       71.57       70.87       70.00    
  26  -1000.0       98.19       97.74       97.09       96.33       95.52       94.67       93.80       92.91       92.01    
        91.11       90.19       89.27       88.35       87.43       86.51       85.59       84.69       83.83       83.03    
        82.52       81.99       81.46       80.94       80.44       79.98       79.55       79.15       78.78       78.41    
        78.06       77.72       77.38       77.05       76.72       76.38       76.05       75.72       75.38       75.04    
        74.69       74.33       73.95       73.55       73.12       72.64       72.11       71.51       70.81       70.00    
  27  -1000.0       96.74       96.46       95.99       95.39       94.71       93.98       93.21       92.41       91.60    
        90.76       89.92       89.07       88.21       87.35       86.49       85.64       84.82       84.03       83.29    
        82.69       82.12       81.58       81.05       80.55       80.08       79.64       79.23       78.85       78.47    
        78.11       77.76       77.41       77.07       76.73       76.39       76.05       75.71       75.37       75.01    
        74.65       74.28       73.89       73.48       73.04       72.55       72.02       71.42       70.74       70.00    
  28  -1000.0       95.55       95.35       94.99       94.51       93.95       93.32       92.64       91.92       91.18    
        90.42       89.64       88.85       88.05       87.25       86.45       85.67       84.90       84.16       83.46    
        82.84       82.26       81.71       81.18       80.67       80.20       79.75       79.33       78.93       78.55    
        78.17       77.81       77.45       77.10       76.75       76.40       76.05       75.70       75.34       74.98    
        74.61       74.22       73.82       73.40       72.94       72.45       71.92       71.33       70.68       70.00    
  29  -1000.0       94.54       94.39       94.10       93.71       93.23       92.68       92.08       91.44       90.77    
        90.07       89.36       88.63       87.89       87.14       86.40       85.66       84.94       84.25       83.58    
        82.97       82.39       81.83       81.30       80.80       80.32       79.87       79.44       79.03       78.63    
        78.24       77.87       77.50       77.13       76.77       76.41       76.05       75.69       75.32       74.94    
        74.56       74.16       73.75       73.31       72.85       72.36       71.82       71.25       70.64       70.00    
  30  -1000.0       93.66       93.54       93.31       92.98       92.57       92.09       91.56       90.98       90.37    
        89.74       89.08       88.40       87.71       87.02       86.32       85.63       84.96       84.30       83.67    
        83.06       82.49       81.94       81.41       80.91       80.43       79.97       79.54       79.11       78.71    
        78.31       77.92       77.54       77.17       76.80       76.42       76.05       75.67       75.29       74.91    
        74.51       74.10       73.68       73.23       72.77       72.27       71.74       71.19       70.60       70.00    
  31  -1000.0       92.90       92.79       92.60       92.32       91.96       91.54       91.06       90.55       89.99    
        89.41       88.80       88.18       87.54       86.89       86.24       85.59       84.95       84.33       83.72    
        83.13       82.57       82.03       81.51       81.01       80.53       80.07       79.63       79.20       78.78    
        78.38       77.98       77.59       77.20       76.82       76.43       76.05       75.66       75.27       74.87    
        74.47       74.05       73.61       73.16       72.69       72.20       71.68       71.14       70.57       70.00    
  32  -1000.0       92.22       92.13       91.96       91.72       91.40       91.03       90.60       90.14       89.63    
        89.10       88.53       87.95       87.36       86.75       86.14       85.53       84.92       84.33       83.75    
        83.18       82.63       82.10       81.59       81.09       80.62       80.15       79.71       79.27       78.85    
        78.44       78.03       77.63       77.23       76.84       76.45       76.05       75.65       75.25       74.84    
        74.43       74.00       73.56       73.11       72.63       72.14       71.63       71.10       70.55       70.00    
  33  -1000.0       91.62       91.54       91.39       91.18       90.90       90.56       90.18       89.75       89.29    
        88.80       88.28       87.74       87.18       86.61       86.03       85.46       84.88       84.31       83.76    
        83.21       82.67       82.15       81.65       81.16       80.69       80.22       79.77       79.34       78.91    
        78.49       78.07       77.67       77.26       76.86       76.46       76.05       75.65       75.24       74.82    
        74.39       73.96       73.52       73.06       72.58       72.09       71.59       71.07       70.54       70.00    
  34  -1000.0       91.08       91.02       90.88       90.69       90.44       90.14       89.79       89.40       88.97    
        88.51       88.03       87.53       87.01       86.47       85.92       85.38       84.83       84.29       83.75    
        83.22       82.70       82.19       81.70       81.21       80.74       80.28       79.83       79.39       78.96    
        78.53       78.11       77.70       77.29       76.88       76.47       76.05       75.64       75.22       74.80    
        74.37       73.93       73.48       73.02       72.54       72.06       71.56       71.05       70.53       70.00    
  35  -1000.0       90.61       90.55       90.43       90.25       90.02       89.75       89.43       89.07       88.67    
        88.25       87.80       87.33       86.84       86.33       85.81       85.29       84.77       84.25       83.73    
        83.22       82.71       82.22       81.73       81.25       80.79       80.33       79.88       79.44       79.00    
        78.57       78.15       77.73       77.31       76.89       76.47       76.06       75.64       75.21       74.78    
        74.34       73.90       73.45       72.99       72.51       72.03       71.53       71.03       70.52       70.00    
  36  -1000.0       90.18       90.13       90.02       89.86       89.65       89.39       89.09       88.76       88.40    
        88.00       87.58       87.13       86.67       86.19       85.70       85.20       84.70       84.20       83.71    
        83.21       82.72       82.23       81.75       81.28       80.82       80.36       79.92       79.47       79.04    
        78.60       78.18       77.75       77.33       76.91       76.48       76.06       75.63       75.20       74.77    
        74.33       73.88       73.42       72.96       72.49       72.00       71.51       71.01       70.51       70.00    
  37  -1000.0       89.81       89.76       89.66       89.50       89.31       89.07       88.79       88.48       88.14    
        87.77       87.37       86.95       86.51       86.06       85.59       85.11       84.64       84.15       83.67    
        83.19       82.71       82.24       81.77       81.30       80.84       80.39       79.95       79.50       79.07    
        78.63       78.20       77.77       77.34       76.92       76.49       76.06       75.63       75.20       74.76    
        74.31       73.86       73.40       72.94       72.47       71.99       71.50       71.00       70.50       70.00    
  38  -1000.0       89.48       89.43       89.33       89.19       89.00       88.78       88.52       88.23       87.91    
        87.55       87.18       86.78       86.37       85.93       85.48       85.03       84.57       84.10       83.64    
        83.17       82.70       82.23       81.77       81.31       80.86       80.41       79.97       79.53       79.09    
        78.65       78.22       77.79       77.36       76.93       76.50       76.06       75.63       75.19       74.75    
        74.30       73.85       73.39       72.92       72.45       71.97       71.49       71.00       70.50       70.00    
  39  -1000.0       89.20       89.15       89.05       88.91       88.73       88.52       88.27       88.00       87.69    
        87.36       87.00       86.62       86.23       85.81       85.38       84.94       84.50       84.05       83.60    
        83.14       82.68       82.23       81.77       81.32       80.87       80.43       79.98       79.54       79.11    
        78.67       78.24       77.80       77.37       76.94       76.50       76.07       75.63       75.19       74.74    
        74.29       73.84       73.38       72.91       72.44       71.96       71.48       70.99       70.50       70.00    
  40  -1000.0       88.96       88.90       88.80       88.66       88.49       88.28       88.05       87.79       87.49    
        87.18       86.84       86.48       86.10       85.70       85.28       84.86       84.43       83.99       83.55    
        83.11       82.66       82.21       81.77       81.32       80.88       80.44       80.00       79.56       79.12    
        78.68       78.25       77.81       77.38       76.94       76.51       76.07       75.63       75.18       74.74    
        74.29       73.83       73.37       72.90       72.43       71.95       71.47       70.98       70.49       70.00    
  41  -1000.0       88.77       88.69       88.58       88.44       88.27       88.07       87.85       87.59       87.32    
        87.01       86.69       86.34       85.98       85.60       85.19       84.78       84.37       83.94       83.51    
        83.08       82.64       82.20       81.76       81.32       80.88       80.44       80.00       79.57       79.13    
        78.70       78.26       77.82       77.39       76.95       76.51       76.07       75.63       75.18       74.73    
        74.28       73.82       73.36       72.89       72.42       71.95       71.47       70.98       70.49       70.00    
  42  -1000.0       88.55       88.50       88.39       88.24       88.08       87.88       87.66       87.42       87.16    
        86.87       86.55       86.22       85.87       85.50       85.11       84.71       84.31       83.89       83.48    
        83.05       82.62       82.18       81.75       81.32       80.88       80.45       80.01       79.57       79.14    
        78.70       78.27       77.83       77.39       76.95       76.51       76.07       75.63       75.18       74.73    
        74.28       73.82       73.36       72.89       72.42       71.94       71.46       70.98       70.49       70.00    
  43  -1000.0       88.37       88.32       88.21       88.07       87.90       87.71       87.50       87.27       87.01    
        86.73       86.43       86.11       85.77       85.41       85.04       84.65       84.25       83.85       83.44    
        83.02       82.59       82.17       81.74       81.31       80.88       80.45       80.01       79.58       79.14    
        78.71       78.27       77.84       77.40       76.96       76.52       76.07       75.63       75.18       74.73    
        74.27       73.82       73.35       72.88       72.41       71.94       71.46       70.97       70.49       70.00    
  44  -1000.0     -1000.0       88.16       88.05       87.91       87.74       87.56       87.35       87.13       86.88    
        86.61       86.33       86.02       85.69       85.34       84.97       84.59       84.21       83.81       83.41    
        82.99       82.57       82.15       81.73       81.30       80.88       80.45       80.01       79.58       79.15    
        78.71       78.28       77.84       77.40       76.96       76.52       76.08       75.63       75.18       74.73    
        74.27       73.81       73.35       72.88       72.41       71.93       71.46       70.97       70.49       70.00    
  45  -1000.0     -1000.0     -1000.0       87.91       87.76       87.59       87.41       87.22       87.00       86.77    
        86.51       86.23       85.93       85.61       85.27       84.91       84.54       84.16       83.77       83.38    
        82.97       82.56       82.14       81.72       81.30       80.87       80.44       80.01       79.58       79.15    
        78.72       78.28       77.84       77.40       76.96       76.52       76.08       75.63       75.18       74.73    
        74.27       73.81       73.35       72.88       72.41       71.93       71.45       70.97       70.49       70.00    
  46  -1000.0     -1000.0     -1000.0     -1000.0       87.63       87.47       87.28       87.09       86.89       86.66    
        86.42       86.15       85.86       85.55       85.22       84.87       84.50       84.13       83.75       83.35    
        82.95       82.54       82.13       81.71       81.29       80.87       80.44       80.01       79.58       79.15    
        78.72       78.28       77.85       77.41       76.97       76.52       76.08       75.63       75.18       74.73    
        74.27       73.81       73.35       72.88       72.41       71.93       71.45       70.97       70.49       70.00    
  47  -1000.0     -1000.0     -1000.0     -1000.0     -1000.0       87.35       87.18       86.98       86.79       86.58    
        86.34       86.09       85.81       85.50       85.18       84.83       84.47       84.10       83.72       83.34    
        82.94       82.53       82.12       81.70       81.29       80.86       80.44       80.01       79.58       79.15    
        78.72       78.28       77.85       77.41       76.97       76.52       76.08       75.63       75.18       74.73    
        74.27       73.81       73.34       72.88       72.41       71.93       71.45       70.97       70.49       70.00    
  48  -1000.0     -1000.0     -1000.0     -1000.0     -1000.0     -1000.0       87.10       86.92       86.70       86.50    
        86.29       86.04       85.77       85.47       85.15       84.81       84.45       84.09       83.71       83.32    
        82.93       82.52       82.11       81.70       81.28       80.86       80.44       80.01       79.58       79.15    
        78.72       78.29       77.85       77.41       76.97       76.52       76.08       75.63       75.18       74.73    
        74.27       73.81       73.34       72.88       72.40       71.93       71.45       70.97       70.49       70.00    
  49  -1000.0     -1000.0     -1000.0     -1000.0     -1000.0     -1000.0     -1000.0       86.88       86.68       86.44    
        86.25       86.02       85.75       85.45       85.14       84.80       84.44       84.08       83.70       83.32    
        82.92       82.52       82.11       81.70       81.28       80.86       80.44       80.01       79.58       79.15    
        78.72       78.29       77.85       77.41       76.97       76.52       76.08       75.63       75.18       74.72    
        74.27       73.81       73.34       72.88       72.40       71.93       71.45       70.97       70.49       70.00    
  50  -1000.0     -1000.0     -1000.0     -1000.0     -1000.0     -1000.0     -1000.0     -1000.0     -1000.0     -1000.0    
      -1000.0     -1000.0     -1000.0     -1000.0     -1000.0     -1000.0     -1000.0     -1000.0     -1000.0     -1000.0    
      -1000.0     -1000.0     -1000.0     -1000.0     -1000.0     -1000.0     -1000.0     -1000.0     -1000.0     -1000.0    
      -1000.0     -1000.0     -1000.0     -1000.0     -1000.0     -1000.0     -1000.0     -1000.0     -1000.0     -1000.0    
      -1000.0     -1000.0     -1000.0     -1000.0     -1000.0     -1000.0     -1000.0     -1000.0     -1000.0       70.00    
1
              HEAD IN LAYER   3 AT END OF TIME STEP   1 IN STRESS PERIOD    1
  ---------------------------------------------------------------------------

            1           2           3           4           5           6           7           8           9          10
           11          12          13          14          15          16          17          18          19          20
           21          22          23          24          25          26          27          28          29          30
           31          32          33          34          35          36          37          38          39          40
[...]
        82.85       82.42       82.00       81.57       81.13       80.70       80.26       79.81       79.37       78.94    
        78.50       78.06       77.62       77.18       76.74       76.29       75.84       75.38       74.92       74.51    
        74.09       73.67       73.23       72.79       72.34       71.88       71.42       70.95       70.48       70.00    
  24  -1000.0       98.20       97.75       97.10       96.34       95.53       94.68       93.81       92.92       92.02    
        91.12       90.20       89.28       88.36       87.43       86.51       85.60       84.70       83.83       83.03    
        82.70       82.34       81.95       81.54       81.11       80.68       80.24       79.80       79.37       78.93    
        78.49       78.05       77.62       77.18       76.74       76.30       75.85       75.41       74.96       74.53    
        74.11       73.67       73.24       72.79       72.34       71.88       71.42       70.95       70.48       70.00    
  25  -1000.0       100.0       99.20       98.26       97.31       96.34       95.37       94.39       93.41       92.43    
        91.44       90.45       89.47       88.48       87.49       86.50       85.52       84.53       83.55       82.61    
        82.57       82.29       81.93       81.52       81.10       80.67       80.24       79.80       79.36       78.93    
        78.49       78.05       77.62       77.18       76.74       76.31       75.87       75.43       74.99       74.55    
        74.12       73.68       73.24       72.80       72.34       71.89       71.42       70.95       70.48       70.00    
  26  -1000.0       98.19       97.74       97.09       96.33       95.52       94.67       93.80       92.91       92.01    
        91.11       90.19       89.27       88.35       87.43       86.51       85.59       84.69       83.83       83.03    
        82.69       82.34       81.95       81.53       81.11       80.67       80.24       79.80       79.36       78.93    
        78.49       78.06       77.62       77.19       76.75       76.31       75.88       75.44       75.00       74.57    
        74.13       73.69       73.25       72.80       72.35       71.89       71.42       70.95       70.48       70.00    
  27  -1000.0       96.74       96.46       95.99       95.39       94.71       93.98       93.21       92.41       91.60    
        90.76       89.92       89.07       88.21       87.35       86.49       85.64       84.82       84.03       83.29    
        82.84       82.42       81.99       81.56       81.13       80.69       80.25       79.81       79.37       78.93    
        78.50       78.06       77.63       77.19       76.76       76.32       75.88       75.45       75.01       74.57    
        74.14       73.69       73.25       72.80       72.35       71.89       71.42       70.95       70.48       70.00    
  28  -1000.0       95.55       95.35       94.99       94.51       93.95       93.32       92.64       91.92       91.18    
        90.42       89.64       88.85       88.05       87.25       86.45       85.67       84.90       84.16       83.46    
        82.97       82.50       82.05       81.60       81.16       80.71       80.27       79.82       79.38       78.94    
        78.51       78.07       77.63       77.20       76.76       76.33       75.89       75.46       75.02       74.58    
        74.14       73.70       73.25       72.80       72.34       71.88       71.42       70.95       70.48       70.00    
  29  -1000.0       94.54       94.39       94.10       93.71       93.23       92.68       92.08       91.44       90.77    
        90.07       89.36       88.63       87.89       87.14       86.40       85.66       84.94       84.25       83.58    
        83.07       82.58       82.11       81.65       81.19       80.74       80.29       79.84       79.40       78.96    
        78.52       78.08       77.64       77.21       76.77       76.34       75.90       75.46       75.02       74.58    
        74.14       73.70       73.25       72.80       72.34       71.88       71.41       70.95       70.47       70.00    
  30  -1000.0       93.66       93.54       93.31       92.98       92.57       92.09       91.56       90.98       90.37    
        89.74       89.08       88.40       87.71       87.02       86.32       85.63       84.96       84.30       83.67    
        83.14       82.64       82.16       81.69       81.22       80.76       80.31       79.86       79.41       78.97    
        78.53       78.09       77.65       77.22       76.78       76.34       75.90       75.47       75.03       74.59    
        74.14       73.70       73.25       72.79       72.34       71.88       71.41       70.94       70.47       70.00    
  31  -1000.0       92.90       92.79       92.60       92.32       91.96       91.54       91.06       90.55       89.99    
        89.41       88.80       88.18       87.54       86.89       86.24       85.59       84.95       84.33       83.72    
        83.19       82.69       82.20       81.72       81.25       80.79       80.33       79.88       79.43       78.99    
        78.54       78.10       77.66       77.22       76.79       76.35       75.91       75.47       75.03       74.59    
        74.14       73.70       73.24       72.79       72.33       71.87       71.41       70.94       70.47       70.00    
  32  -1000.0       92.22       92.13       91.96       91.72       91.40       91.03       90.60       90.14       89.63    
        89.10       88.53       87.95       87.36       86.75       86.14       85.53       84.92       84.33       83.75    
        83.23       82.72       82.23       81.75       81.27       80.81       80.35       79.90       79.45       79.00    
        78.56       78.11       77.67       77.23       76.79       76.35       75.91       75.47       75.03       74.59    
        74.14       73.69       73.24       72.79       72.33       71.87       71.40       70.94       70.47       70.00    
  33  -1000.0       91.62       91.54       91.39       91.18       90.90       90.56       90.18       89.75       89.29    
        88.80       88.28       87.74       87.18       86.61       86.03       85.46       84.88       84.31       83.76    
        83.24       82.74       82.25       81.77       81.29       80.83       80.37       79.91       79.46       79.01    
        78.57       78.12       77.68       77.24       76.80       76.36       75.92       75.48       75.03       74.59    
        74.14       73.69       73.24       72.78       72.33       71.87       71.40       70.94       70.47       70.00    
  34  -1000.0       91.08       91.02       90.88       90.69       90.44       90.14       89.79       89.40       88.97    
        88.51       88.03       87.53       87.01       86.47       85.92       85.38       84.83       84.29       83.75    
        83.24       82.75       82.26       81.78       81.31       80.84       80.38       79.93       79.47       79.02    
        78.58       78.13       77.69       77.25       76.81       76.36       75.92       75.48       75.03       74.59    
        74.14       73.69       73.24       72.78       72.32       71.86       71.40       70.93       70.47       70.00    
  35  -1000.0       90.61       90.55       90.43       90.25       90.02       89.75       89.43       89.07       88.67    
        88.25       87.80       87.33       86.84       86.33       85.81       85.29       84.77       84.25       83.73    
        83.23       82.74       82.26       81.78       81.31       80.85       80.39       79.94       79.48       79.03    
        78.59       78.14       77.70       77.26       76.81       76.37       75.93       75.48       75.04       74.59    
        74.14       73.69       73.23       72.78       72.32       71.86       71.40       70.93       70.47       70.00    
  36  -1000.0       90.18       90.13       90.02       89.86       89.65       89.39       89.09       88.76       88.40    
        88.00       87.58       87.13       86.67       86.19       85.70       85.20       84.70       84.20       83.71    
        83.22       82.73       82.26       81.78       81.32       80.86       80.40       79.94       79.49       79.04    
        78.60       78.15       77.71       77.26       76.82       76.37       75.93       75.48       75.04       74.59    
        74.14       73.69       73.23       72.78       72.32       71.86       71.39       70.93       70.47       70.00    
  37  -1000.0       89.81       89.76       89.66       89.50       89.31       89.07       88.79       88.48       88.14    
        87.77       87.37       86.95       86.51       86.06       85.59       85.11       84.64       84.15       83.67    
        83.19       82.72       82.25       81.78       81.32       80.86       80.40       79.95       79.50       79.05    
        78.60       78.16       77.71       77.27       76.82       76.38       75.93       75.48       75.04       74.59    
        74.14       73.68       73.23       72.77       72.32       71.85       71.39       70.93       70.46       70.00    
  38  -1000.0       89.48       89.43       89.33       89.19       89.00       88.78       88.52       88.23       87.91    
        87.55       87.18       86.78       86.37       85.93       85.48       85.03       84.57       84.10       83.64    
        83.17       82.70       82.23       81.77       81.31       80.86       80.40       79.95       79.50       79.05    
        78.61       78.16       77.72       77.27       76.82       76.38       75.93       75.49       75.04       74.59    
        74.14       73.68       73.23       72.77       72.31       71.85       71.39       70.93       70.46       70.00    
  39  -1000.0       89.20       89.15       89.05       88.91       88.73       88.52       88.27       88.00       87.69    
        87.36       87.00       86.62       86.23       85.81       85.38       84.94       84.50       84.05       83.60    
        83.13       82.67       82.22       81.76       81.30       80.85       80.40       79.95       79.50       79.06    
        78.61       78.16       77.72       77.27       76.83       76.38       75.93       75.49       75.04       74.59    
        74.14       73.68       73.23       72.77       72.31       71.85       71.39       70.93       70.46       70.00    
  40  -1000.0       88.96       88.90       88.80       88.66       88.49       88.28       88.05       87.79       87.49    
        87.18       86.84       86.48       86.10       85.70       85.28       84.86       84.43       83.99       83.55    
        83.10       82.65       82.20       81.75       81.30       80.85       80.40       79.95       79.50       79.06    
        78.61       78.17       77.72       77.28       76.83       76.38       75.94       75.49       75.04       74.59    
        74.14       73.68       73.23       72.77       72.31       71.85       71.39       70.93       70.46       70.00    
  41  -1000.0       88.77       88.69       88.58       88.44       88.27       88.07       87.85       87.59       87.32    
        87.01       86.69       86.34       85.98       85.60       85.19       84.78       84.37       83.94       83.51    
        83.07       82.62       82.18       81.73       81.28       80.84       80.39       79.95       79.50       79.06    
        78.61       78.17       77.72       77.28       76.83       76.38       75.94       75.49       75.04       74.59    
        74.14       73.68       73.23       72.77       72.31       71.85       71.39       70.93       70.46       70.00    
  42  -1000.0     -1000.0       88.50       88.39       88.24       88.08       87.88       87.66       87.42       87.16    
        86.87       86.55       86.22       85.87       85.50       85.11       84.71       84.31       83.89       83.48    
        83.04       82.60       82.16       81.72       81.27       80.83       80.39       79.94       79.50       79.06    
        78.61       78.17       77.72       77.28       76.83       76.39       75.94       75.49       75.04       74.59    
        74.13       73.68       73.22       72.77       72.31       71.85       71.39       70.93       70.46       70.00    
  43  -1000.0     -1000.0     -1000.0       88.21       88.07       87.90       87.71       87.50       87.27       87.01    
        86.73       86.43       86.11       85.77       85.41       85.04       84.65       84.25       83.85       83.44    
        83.01       82.57       82.14       81.70       81.26       80.82       80.38       79.94       79.50       79.06    
        78.61       78.17       77.72       77.28       76.83       76.39       75.94       75.49       75.04       74.59    
        74.13       73.68       73.22       72.77       72.31       71.85       71.39       70.93       70.46       70.00    
  44  -1000.0     -1000.0     -1000.0     -1000.0       87.91       87.74       87.56       87.35       87.13       86.88    
        86.61       86.33       86.02       85.69       85.34       84.97       84.59       84.21       83.81       83.41    
        82.98       82.55       82.12       81.69       81.25       80.81       80.38       79.94       79.50       79.05    
        78.61       78.17       77.72       77.28       76.83       76.39       75.94       75.49       75.04       74.59    
        74.13       73.68       73.22       72.77       72.31       71.85       71.39       70.92       70.46       70.00    
  45  -1000.0     -1000.0     -1000.0     -1000.0     -1000.0       87.59       87.41       87.22       87.00       86.77    
        86.51       86.23       85.93       85.61       85.27       84.91       84.54       84.16       83.77       83.38    
        82.96       82.53       82.11       81.67       81.24       80.81       80.37       79.93       79.49       79.05    
        78.61       78.17       77.72       77.28       76.83       76.39       75.94       75.49       75.04       74.59    
        74.13       73.68       73.22       72.77       72.31       71.85       71.39       70.92       70.46       70.00    
  46  -1000.0     -1000.0     -1000.0     -1000.0     -1000.0     -1000.0       87.28       87.09       86.89       86.66    
        86.42       86.15       85.86       85.55       85.22       84.87       84.50       84.13       83.75       83.35    
        82.94       82.52       82.09       81.66       81.23       80.80       80.37       79.93       79.49       79.05    
        78.61       78.17       77.72       77.28       76.83       76.39       75.94       75.49       75.04       74.59    
        74.13       73.68       73.22       72.77       72.31       71.85       71.39       70.92       70.46       70.00    
  47  -1000.0     -1000.0     -1000.0     -1000.0     -1000.0     -1000.0     -1000.0       86.98       86.79       86.58    
        86.34       86.09       85.81       85.50       85.18       84.83       84.47       84.10       83.72       83.34    
        82.92       82.50       82.08       81.66       81.23       80.80       80.36       79.93       79.49       79.05    
        78.61       78.17       77.72       77.28       76.83       76.39       75.94       75.49       75.04       74.59    
        74.13       73.68       73.22       72.77       72.31       71.85       71.39       70.92       70.46       70.00    
  48  -1000.0     -1000.0     -1000.0     -1000.0     -1000.0     -1000.0     -1000.0     -1000.0       86.70       86.50    
        86.29       86.04       85.77       85.47       85.15       84.81       84.45       84.09       83.71       83.32    
        82.91       82.50       82.07       81.65       81.22       80.79       80.36       79.92       79.49       79.05    
        78.61       78.17       77.72       77.28       76.83       76.39       75.94       75.49       75.04       74.59    
        74.13       73.68       73.22       72.76       72.31       71.85       71.39       70.92       70.46       70.00    
  49  -1000.0     -1000.0     -1000.0     -1000.0     -1000.0     -1000.0     -1000.0     -1000.0     -1000.0       86.44    
        86.25       86.02       85.75       85.45       85.14       84.80       84.44       84.08       83.70       83.32    
        82.91       82.49       82.07       81.65       81.22       80.79       80.36       79.92       79.49       79.05    
        78.61       78.17       77.72       77.28       76.83       76.39       75.94       75.49       75.04       74.59    
        74.13       73.68       73.22       72.76       72.31       71.85       71.39       70.92       70.46       70.00    
  50  -1000.0     -1000.0     -1000.0     -1000.0     -1000.0     -1000.0     -1000.0     -1000.0     -1000.0     -1000.0    
      -1000.0     -1000.0     -1000.0     -1000.0     -1000.0     -1000.0     -1000.0     -1000.0     -1000.0     -1000.0    
      -1000.0     -1000.0     -1000.0     -1000.0     -1000.0     -1000.0     -1000.0     -1000.0     -1000.0     -1000.0    
      -1000.0     -1000.0     -1000.0     -1000.0     -1000.0     -1000.0     -1000.0     -1000.0     -1000.0     -1000.0    
      -1000.0     -1000.0     -1000.0     -1000.0     -1000.0     -1000.0     -1000.0     -1000.0     -1000.0       70.00    

 HEAD WILL BE SAVED ON UNIT   51 AT END OF TIME STEP    1, STRESS PERIOD    1

 DRAWDOWN WILL BE SAVED ON UNIT   52 AT END OF TIME STEP    1, STRESS PERIOD    1
1
  VOLUMETRIC BUDGET FOR ENTIRE MODEL AT END OF TIME STEP    1, STRESS PERIOD   1
  ------------------------------------------------------------------------------

     CUMULATIVE VOLUMES      L**3       RATES FOR THIS TIME STEP      L**3/T
     ------------------                 ------------------------

           IN:                                      IN:
           ---                                      ---
             STORAGE =           0.0000               STORAGE =           0.0000
       CONSTANT HEAD =           0.0000         CONSTANT HEAD =           0.0000
               WELLS =         375.0000                 WELLS =         375.0000
       RIVER LEAKAGE =      246739.0938         RIVER LEAKAGE =      246739.0938
                  ET =           0.0000                    ET =           0.0000
            RECHARGE =       32599.9980              RECHARGE =       32599.9980

            TOTAL IN =      279714.0938              TOTAL IN =      279714.0938

          OUT:                                     OUT:
          ----                                     ----
             STORAGE =           0.0000               STORAGE =           0.0000
       CONSTANT HEAD =      207660.9844         CONSTANT HEAD =      207660.9844
               WELLS =        1500.0000                 WELLS =        1500.0000
       RIVER LEAKAGE =       70097.9375         RIVER LEAKAGE =       70097.9375
                  ET =         455.1377                    ET =         455.1377
            RECHARGE =           0.0000              RECHARGE =           0.0000

           TOTAL OUT =      279714.0625             TOTAL OUT =      279714.0625

            IN - OUT =       3.1250E-02              IN - OUT =       3.1250E-02

 PERCENT DISCREPANCY =           0.00     PERCENT DISCREPANCY =           0.00






         TIME SUMMARY AT END OF TIME STEP    1 IN STRESS PERIOD    1
                    SECONDS     MINUTES      HOURS       DAYS        YEARS
                    -----------------------------------------------------------
   TIME STEP LENGTH  86400.      1440.0      24.000      1.0000     2.73785E-03
 STRESS PERIOD TIME  86400.      1440.0      24.000      1.0000     2.73785E-03
         TOTAL TIME  86400.      1440.0      24.000      1.0000     2.73785E-03
1

 Run end date and time (yyyy/mm/dd hh:mm:ss): 2026/02/25  4:00:54
 Elapsed run time: 14.916 Seconds

