                                  MODFLOW-2005     
      U.S. GEOLOGICAL SURVEY MODULAR FINITE-DIFFERENCE GROUND-WATER FLOW MODEL
                            VERSION 1.12.00 2/3/2017

 LIST FILE: static_ensemble_1111311.list
                         UNIT    2

 OPENING static_ensemble_1111311.dis
 FILE TYPE:DIS   UNIT   11   STATUS:OLD    
 FORMAT:FORMATTED              ACCESS:SEQUENTIAL          

 OPENING static_ensemble_1111311.bas
 FILE TYPE:BAS6   UNIT   13   STATUS:OLD    
 FORMAT:FORMATTED              ACCESS:SEQUENTIAL          

 OPENING static_ensemble_1111311.lpf
 FILE TYPE:LPF   UNIT   15   STATUS:OLD    
 FORMAT:FORMATTED              ACCESS:SEQUENTIAL          

 OPENING static_ensemble_1111311.evt
 FILE TYPE:EVT   UNIT   22   STATUS:OLD    
 FORMAT:FORMATTED              ACCESS:SEQUENTIAL          

 OPENING static_ensemble_1111311.rch
 FILE TYPE:RCH   UNIT   19   STATUS:OLD    
 FORMAT:FORMATTED              ACCESS:SEQUENTIAL          

 OPENING static_ensemble_1111311.riv
 FILE TYPE:RIV   UNIT   18   STATUS:OLD    
 FORMAT:FORMATTED              ACCESS:SEQUENTIAL          

 OPENING static_ensemble_1111311.wel
 FILE TYPE:WEL   UNIT   20   STATUS:OLD    
 FORMAT:FORMATTED              ACCESS:SEQUENTIAL          

 OPENING static_ensemble_1111311.oc
 FILE TYPE:OC   UNIT   14   STATUS:OLD    
 FORMAT:FORMATTED              ACCESS:SEQUENTIAL          

 OPENING static_ensemble_1111311.pcg
 FILE TYPE:PCG   UNIT   27   STATUS:OLD    
 FORMAT:FORMATTED              ACCESS:SEQUENTIAL          

 OPENING static_ensemble_1111311.cbc
 FILE TYPE:DATA(BINARY)   UNIT   53   STATUS:REPLACE
 FORMAT:UNFORMATTED            ACCESS:STREAM              

 OPENING static_ensemble_1111311.hds
 FILE TYPE:DATA(BINARY)   UNIT   51   STATUS:REPLACE
 FORMAT:UNFORMATTED            ACCESS:STREAM              

 OPENING static_ensemble_1111311.ddn
 FILE TYPE:DATA(BINARY)   UNIT   52   STATUS:REPLACE
 FORMAT:UNFORMATTED            ACCESS:STREAM              

 BAS -- BASIC PACKAGE, VERSION 7, 5/2/2005 INPUT READ FROM UNIT   13
 
 MODFLOW was compiled using mixed precision
 Precision of REAL variables:           6
 Precision of DOUBLE PRECISION variables:          15

 DISCRETIZATION INPUT DATA READ FROM UNIT   11
 # DIS package for MODFLOW-2005 generated by Flopy 3.9.5
    3 LAYERS        50 ROWS        50 COLUMNS
    1 STRESS PERIOD(S) IN SIMULATION
 MODEL TIME UNIT IS DAYS
 MODEL LENGTH UNIT IS METERS
  Confining bed flag for each layer:
   0   0   0

                     DELR =   1000.00    

                     DELC =   1000.00    



           TOP ELEVATION OF LAYER 1
 READING ON UNIT   11 WITH FORMAT: (50E15.6)           



             MODEL LAYER BOTTOM EL. FOR LAYER   1
 READING ON UNIT   11 WITH FORMAT: (50E15.6)           



             MODEL LAYER BOTTOM EL. FOR LAYER   2
 READING ON UNIT   11 WITH FORMAT: (50E15.6)           



             MODEL LAYER BOTTOM EL. FOR LAYER   3
 READING ON UNIT   11 WITH FORMAT: (50E15.6)           


 STRESS PERIOD     LENGTH       TIME STEPS     MULTIPLIER FOR DELT    SS FLAG
 ----------------------------------------------------------------------------
        1         1.000000          1                    1.000         SS

 STEADY-STATE SIMULATION



 
 # BAS6 package for MODFLOW-2005 generated by Flopy 3.9.5                        
 THE FREE FORMAT OPTION HAS BEEN SELECTED



                     BOUNDARY ARRAY FOR LAYER   1
 READING ON UNIT   13 WITH FORMAT: (50I10)             



                     BOUNDARY ARRAY FOR LAYER   2
 READING ON UNIT   13 WITH FORMAT: (50I10)             



                     BOUNDARY ARRAY FOR LAYER   3
 READING ON UNIT   13 WITH FORMAT: (50I10)             

 AQUIFER HEAD WILL BE SET TO  -999.99     AT ALL NO-FLOW NODES (IBOUND=0).



                       INITIAL HEAD FOR LAYER   1
 READING ON UNIT   13 WITH FORMAT: (50E15.6)           



                       INITIAL HEAD FOR LAYER   2
 READING ON UNIT   13 WITH FORMAT: (50E15.6)           



                       INITIAL HEAD FOR LAYER   3
 READING ON UNIT   13 WITH FORMAT: (50E15.6)           
 # OC package for MODFLOW-2005 generated by Flopy 3.9.5

 OUTPUT CONTROL IS SPECIFIED ONLY AT TIME STEPS FOR WHICH OUTPUT IS DESIRED
 COMPACT CELL-BY-CELL BUDGET FILES WILL BE WRITTEN
 AUXILIARY DATA WILL BE SAVED IN CELL-BY-CELL BUDGET FILES
 HEAD PRINT FORMAT CODE IS   0    DRAWDOWN PRINT FORMAT CODE IS   0
 HEADS WILL BE SAVED ON UNIT   51    DRAWDOWNS WILL BE SAVED ON UNIT   52

 LPF -- LAYER-PROPERTY FLOW PACKAGE, VERSION 7, 5/2/2005
         INPUT READ FROM UNIT   15
 # LPF package for MODFLOW-2005 generated by Flopy 3.9.5
 CELL-BY-CELL FLOWS WILL BE SAVED ON UNIT   53
 HEAD AT CELLS THAT CONVERT TO DRY= -1.00000E+30
 No named parameters
 STORAGECOEFFICIENT OPTION:
 Read storage coefficient rather than specific storage

   LAYER FLAGS:
 LAYER       LAYTYP        LAYAVG         CHANI        LAYVKA        LAYWET
 ---------------------------------------------------------------------------
    1             1             0     1.000E+00             0             0
    2             1             0     1.000E+00             0             0
    3             1             0     1.000E+00             0             0

   INTERPRETATION OF LAYER FLAGS:
                        INTERBLOCK     HORIZONTAL    DATA IN
         LAYER TYPE   TRANSMISSIVITY   ANISOTROPY   ARRAY VKA   WETTABILITY
 LAYER      (LAYTYP)      (LAYAVG)       (CHANI)      (LAYVKA)      (LAYWET)
 ---------------------------------------------------------------------------
    1   CONVERTIBLE      HARMONIC     1.000E+00    VERTICAL K  NON-WETTABLE
    2   CONVERTIBLE      HARMONIC     1.000E+00    VERTICAL K  NON-WETTABLE
    3   CONVERTIBLE      HARMONIC     1.000E+00    VERTICAL K  NON-WETTABLE

 WETTING CAPABILITY IS NOT ACTIVE IN ANY LAYER



              HYD. COND. ALONG ROWS FOR LAYER   1
 READING ON UNIT   15 WITH FORMAT: (50E15.6)           



                VERTICAL HYD. COND. FOR LAYER   1
 READING ON UNIT   15 WITH FORMAT: (50E15.6)           



              HYD. COND. ALONG ROWS FOR LAYER   2
 READING ON UNIT   15 WITH FORMAT: (50E15.6)           



                VERTICAL HYD. COND. FOR LAYER   2
 READING ON UNIT   15 WITH FORMAT: (50E15.6)           



              HYD. COND. ALONG ROWS FOR LAYER   3
 READING ON UNIT   15 WITH FORMAT: (50E15.6)           



                VERTICAL HYD. COND. FOR LAYER   3
 READING ON UNIT   15 WITH FORMAT: (50E15.6)           

 WEL -- WELL PACKAGE, VERSION 7, 5/2/2005 INPUT READ FROM UNIT   20
 # WEL package for MODFLOW-2005 generated by Flopy 3.9.5
 No named parameters
 MAXIMUM OF      3 ACTIVE WELLS AT ONE TIME


     0 Well parameters

 RIV -- RIVER PACKAGE, VERSION 7, 5/2/2005 INPUT READ FROM UNIT   18
 # RIV package for MODFLOW-2005 generated by Flopy 3.9.5
 No named parameters
 MAXIMUM OF     49 ACTIVE RIVER REACHES AT ONE TIME
 CELL-BY-CELL FLOWS WILL BE SAVED ON UNIT   53


     0 River parameters

 EVT -- EVAPOTRANSPIRATION PACKAGE, VERSION 7, 5/2/2005
         INPUT READ FROM UNIT   22
 # EVT package for MODFLOW-2005 generated by Flopy 3.9.5
 No named parameters
 OPTION 3 -- EVAPOTRANSPIRATION FROM HIGHEST ACTIVE NODE IN EACH VERTICAL COLUMN
 CELL-BY-CELL FLOWS WILL BE SAVED ON UNIT   53


     0 Evapotranspiration parameters

 RCH -- RECHARGE PACKAGE, VERSION 7, 5/2/2005 INPUT READ FROM UNIT   19
 # RCH package for MODFLOW-2005 generated by Flopy 3.9.5
 No named parameters
 OPTION 3 -- RECHARGE TO HIGHEST ACTIVE NODE IN EACH VERTICAL COLUMN
 CELL-BY-CELL FLOWS WILL BE SAVED ON UNIT   53


     0 Recharge parameters

 PCG -- CONJUGATE-GRADIENT SOLUTION PACKAGE, VERSION 7, 5/2/2005
 # PCG package for MODFLOW-2005 generated by Flopy 3.9.5
 MAXIMUM OF   5000 CALLS OF SOLUTION ROUTINE
 MAXIMUM OF    500 INTERNAL ITERATIONS PER CALL TO SOLUTION ROUTINE
 MATRIX PRECONDITIONING TYPE :    1



                                    SOLUTION BY THE CONJUGATE-GRADIENT METHOD
                                   -------------------------------------------
                    MAXIMUM NUMBER OF CALLS TO PCG ROUTINE =     5000
                        MAXIMUM ITERATIONS PER CALL TO PCG =      500
                               MATRIX PRECONDITIONING TYPE =        1
        RELAXATION FACTOR (ONLY USED WITH PRECOND. TYPE 1) =    0.97000E+00
 PARAMETER OF POLYNOMIAL PRECOND. = 2 (2) OR IS CALCULATED :        0
                         HEAD CHANGE CRITERION FOR CLOSURE =    0.10000E-04
                     RESIDUAL CHANGE CRITERION FOR CLOSURE =    0.10000E-04
            PCG HEAD AND RESIDUAL CHANGE PRINTOUT INTERVAL =      999
     PRINTING FROM SOLVER IS LIMITED(1) OR SUPPRESSED (>1) =        3
                            STEADY-STATE DAMPING PARAMETER =    0.10000E-01
                               TRANSIENT DAMPING PARAMETER =    0.10000E-01
1
                            STRESS PERIOD NO.    1, LENGTH =   1.000000    
                            -----------------------------------------------

                              NUMBER OF TIME STEPS =     1

                               MULTIPLIER FOR DELT =     1.000

                            INITIAL TIME STEP SIZE =   1.000000    

 WELL NO.  LAYER   ROW   COL   STRESS RATE         
 --------------------------------------------------
      1      3     22     39      -1500.    
      2      1     13     15       0.000    
      3      1     25     26       375.0    

      3 WELLS

 REACH NO.  LAYER   ROW   COL     STAGE      CONDUCTANCE     BOTTOM EL.         
 -------------------------------------------------------------------------------
      1      1     25      2       100.5           50.00           98.00    
      2      1     25      3       99.50           50.00           97.00    
      3      1     25      4       98.50           50.00           96.00    
      4      1     25      5       97.50           50.00           95.00    
      5      1     25      6       96.50           50.00           94.00    
      6      1     25      7       95.50           50.00           93.00    
      7      1     25      8       94.50           50.00           92.00    
      8      1     25      9       93.50           50.00           91.00    
      9      1     25     10       92.50           50.00           90.00    
     10      1     25     11       91.50           50.00           89.00    
     11      1     25     12       90.50           50.00           88.00    
     12      1     25     13       89.50           50.00           87.00    
     13      1     25     14       88.50           50.00           86.00    
     14      1     25     15       87.50           50.00           85.00    
     15      1     25     16       86.50           50.00           84.00    
     16      1     25     17       85.50           50.00           83.00    
     17      1     25     18       84.50           50.00           82.00    
     18      1     25     19       83.50           50.00           81.00    
     19      1     25     20       82.50           50.00           80.00    
     20      1     25     21       81.50           50.00           79.00    
     21      1     25     22       80.50           50.00           78.00    
     22      1     25     23       79.50           50.00           77.00    
     23      1     25     24       78.50           50.00           76.00    
     24      1     25     25       77.50           50.00           75.00    
     25      1     25     26       77.40           50.00           74.90    
     26      1     25     27       77.30           50.00           74.80    
     27      1     25     28       77.20           50.00           74.70    
     28      1     25     29       77.10           50.00           74.60    
     29      1     25     30       77.00           50.00           74.50    
     30      1     25     31       76.90           50.00           74.40    
     31      1     25     32       76.80           50.00           74.30    
     32      1     25     33       76.70           50.00           74.20    
     33      1     25     34       76.60           50.00           74.10    
     34      1     25     35       76.50           50.00           74.00    
     35      1     25     36       76.40           50.00           73.90    
     36      1     25     37       76.30           50.00           73.80    
     37      1     25     38       76.20           50.00           73.70    
     38      1     25     39       76.10           50.00           73.60    
     39      1     25     40       76.00           50.00           73.50    
     40      1     25     41       75.90           50.00           73.40    
     41      1     25     42       75.80           50.00           73.30    
     42      1     25     43       75.70           50.00           73.20    
     43      1     25     44       75.60           50.00           73.10    
     44      1     25     45       75.50           50.00           73.00    
     45      1     25     46       75.40           50.00           72.90    
     46      1     25     47       75.30           50.00           72.80    
     47      1     25     48       75.20           50.00           72.70    
     48      1     25     49       75.10           50.00           72.60    
     49      1     25     50       75.00           50.00           72.50    

     49 RIVER REACHES



                         ET SURFACE
 READING ON UNIT   22 WITH FORMAT: (50E15.6)           



            EVAPOTRANSPIRATION RATE
 READING ON UNIT   22 WITH FORMAT: (50E15.6)           

         EXTINCTION DEPTH =   10.0000    



                           RECHARGE
 READING ON UNIT   19 WITH FORMAT: (50E15.6)           
 
 SOLVING FOR HEAD 

 OUTPUT CONTROL FOR STRESS PERIOD    1   TIME STEP    1
    SAVE HEAD FOR ALL LAYERS
    SAVE DRAWDOWN FOR ALL LAYERS
    SAVE BUDGET
    PRINT HEAD FOR ALL LAYERS
    PRINT BUDGET
 UBDSV2 SAVING "   CONSTANT HEAD" ON UNIT  53 AT TIME STEP  1, STRESS PERIOD   1
 UBDSV1 SAVING "FLOW RIGHT FACE " ON UNIT  53 AT TIME STEP  1, STRESS PERIOD   1
 UBDSV1 SAVING "FLOW FRONT FACE " ON UNIT  53 AT TIME STEP  1, STRESS PERIOD   1
 UBDSV1 SAVING "FLOW LOWER FACE " ON UNIT  53 AT TIME STEP  1, STRESS PERIOD   1
 UBDSV4 SAVING "   RIVER LEAKAGE" ON UNIT  53 AT TIME STEP  1, STRESS PERIOD   1
 UBDSV3 SAVING "              ET" ON UNIT  53 AT TIME STEP  1, STRESS PERIOD   1
 UBDSV3 SAVING "        RECHARGE" ON UNIT  53 AT TIME STEP  1, STRESS PERIOD   1
1
              HEAD IN LAYER   1 AT END OF TIME STEP   1 IN STRESS PERIOD    1
  ---------------------------------------------------------------------------

            1           2           3           4           5           6           7           8           9          10
           11          12          13          14          15          16          17          18          19          20
           21          22          23          24          25          26          27          28          29          30
           31          32          33          34          35          36          37          38          39          40
           41          42          43          44          45          46          47          48          49          50
 ........................................................................................................................
   1  -1000.0     -1000.0     -1000.0     -1000.0     -1000.0     -1000.0     -1000.0     -1000.0     -1000.0     -1000.0    
      -1000.0     -1000.0     -1000.0     -1000.0     -1000.0     -1000.0     -1000.0     -1000.0     -1000.0     -1000.0    
      -1000.0     -1000.0     -1000.0     -1000.0     -1000.0     -1000.0     -1000.0     -1000.0     -1000.0     -1000.0    
      -1000.0     -1000.0     -1000.0     -1000.0     -1000.0     -1000.0     -1000.0     -1000.0     -1000.0     -1000.0    
      -1000.0     -1000.0     -1000.0     -1000.0     -1000.0     -1000.0     -1000.0     -1000.0     -1000.0       70.00    
   2  -1000.0     -1000.0     -1000.0     -1000.0     -1000.0       81.54       81.43       81.26       81.06       80.83    
        80.65       80.42       80.17       79.88       79.56       79.22       78.87       78.53       78.18       77.83    
        77.50       77.16       76.82       76.49       76.16       75.84       75.52       75.20       74.90       74.59    
        74.30       74.01       73.73       73.46       73.20       72.94       72.69       72.45       72.22       71.99    
        71.77       71.56       71.35       71.15       70.95       70.76       70.57       70.38       70.19       70.00    
   3  -1000.0     -1000.0     -1000.0     -1000.0       81.69       81.59       81.44       81.27       81.05       80.87    
        80.66       80.43       80.17       79.88       79.56       79.22       78.87       78.52       78.18       77.83    
        77.49       77.15       76.82       76.49       76.16       75.83       75.51       75.20       74.89       74.58    
        74.29       74.00       73.72       73.45       73.19       72.93       72.68       72.44       72.21       71.98    
        71.76       71.55       71.34       71.14       70.95       70.75       70.56       70.38       70.19       70.00    
   4  -1000.0     -1000.0     -1000.0       81.85       81.75       81.61       81.46       81.26       81.09       80.90    
        80.68       80.45       80.18       79.89       79.56       79.22       78.87       78.52       78.17       77.82    
        77.48       77.14       76.81       76.47       76.14       75.81       75.49       75.18       74.87       74.56    
        74.27       73.98       73.70       73.43       73.16       72.91       72.66       72.42       72.19       71.97    
        71.75       71.54       71.33       71.13       70.94       70.75       70.56       70.37       70.19       70.00    
   5  -1000.0     -1000.0       81.98       81.89       81.78       81.63       81.46       81.30       81.12       80.93    
        80.71       80.46       80.19       79.89       79.57       79.22       78.86       78.51       78.16       77.81    
        77.47       77.13       76.79       76.45       76.12       75.79       75.47       75.15       74.84       74.53    
        74.24       73.95       73.67       73.40       73.13       72.88       72.63       72.39       72.16       71.94    
        71.72       71.51       71.31       71.11       70.92       70.73       70.55       70.37       70.18       70.00    
   6  -1000.0       82.07       82.01       81.92       81.79       81.64       81.50       81.34       81.16       80.95    
        80.73       80.48       80.20       79.90       79.57       79.21       78.86       78.51       78.15       77.80    
        77.45       77.11       76.77       76.43       76.09       75.76       75.43       75.11       74.80       74.49    
        74.20       73.91       73.63       73.36       73.09       72.84       72.59       72.36       72.13       71.91    
        71.69       71.49       71.29       71.09       70.90       70.72       70.54       70.36       70.18       70.00    
   7  -1000.0       82.07       82.02       81.93       81.80       81.68       81.53       81.37       81.19       80.98    
        80.75       80.49       80.21       79.90       79.57       79.21       78.85       78.49       78.14       77.78    
        77.43       77.08       76.73       76.39       76.05       75.72       75.39       75.06       74.75       74.44    
        74.15       73.86       73.57       73.30       73.04       72.79       72.54       72.31       72.08       71.86    
        71.65       71.45       71.25       71.06       70.88       70.70       70.52       70.35       70.17       70.00    
   8  -1000.0       82.07       82.02       81.93       81.83       81.71       81.57       81.40       81.21       81.00    
        80.76       80.50       80.22       79.91       79.57       79.21       78.84       78.48       78.12       77.76    
        77.40       77.05       76.70       76.35       76.00       75.66       75.33       75.01       74.69       74.38    
        74.08       73.79       73.51       73.24       72.98       72.72       72.48       72.25       72.02       71.81    
        71.60       71.40       71.21       71.02       70.85       70.67       70.50       70.33       70.17       70.00    
   9  -1000.0       82.08       82.03       81.96       81.86       81.74       81.60       81.43       81.24       81.02    
        80.78       80.52       80.23       79.91       79.57       79.20       78.83       78.46       78.10       77.74    
        77.37       77.01       76.65       76.30       75.95       75.60       75.27       74.94       74.62       74.31    
        74.00       73.71       73.43       73.16       72.90       72.65       72.41       72.18       71.96       71.74    
        71.54       71.35       71.16       70.98       70.81       70.64       70.48       70.32       70.16       70.00    
  10  -1000.0       82.09       82.05       81.98       81.89       81.77       81.63       81.46       81.26       81.04    
        80.80       80.53       80.23       79.91       79.56       79.19       78.82       78.45       78.08       77.71    
        77.33       76.96       76.60       76.24       75.88       75.53       75.19       74.85       74.53       74.22    
        73.91       73.62       73.34       73.07       72.81       72.56       72.32       72.10       71.88       71.67    
        71.47       71.28       71.10       70.93       70.76       70.60       70.45       70.30       70.15       70.00    
  11  -1000.0       82.11       82.07       82.01       81.92       81.80       81.66       81.49       81.29       81.07    
        80.82       80.54       80.24       79.91       79.56       79.18       78.80       78.42       78.05       77.67    
        77.29       76.91       76.54       76.16       75.80       75.44       75.09       74.76       74.43       74.11    
        73.81       73.52       73.23       72.97       72.71       72.46       72.22       72.00       71.79       71.58    
        71.39       71.21       71.04       70.87       70.71       70.56       70.42       70.28       70.14       70.00    
  12  -1000.0       82.14       82.11       82.04       81.95       81.84       81.69       81.52       81.32       81.09    
        80.83       80.55       80.25       79.91       79.55       79.17       78.78       78.40       78.01       77.63    
        77.24       76.85       76.46       76.08       75.71       75.34       74.99       74.64       74.31       73.99    
        73.69       73.39       73.11       72.84       72.59       72.34       72.11       71.89       71.68       71.49    
        71.30       71.12       70.96       70.80       70.65       70.51       70.38       70.25       70.12       70.00    
  13  -1000.0       82.17       82.14       82.08       81.99       81.87       81.72       81.55       81.34       81.11    
        80.85       80.57       80.25       79.91       79.55       79.15       78.76       78.37       77.98       77.59    
        77.18       76.78       76.38       75.99       75.60       75.23       74.86       74.51       74.18       73.86    
        73.55       73.26       72.98       72.71       72.45       72.21       71.99       71.77       71.57       71.38    
        71.20       71.03       70.87       70.72       70.59       70.46       70.34       70.22       70.11       70.00    
  14  -1000.0       82.21       82.18       82.12       82.03       81.91       81.76       81.58       81.37       81.14    
        80.87       80.58       80.26       79.91       79.54       79.14       78.74       78.34       77.94       77.54    
        77.12       76.70       76.28       75.88       75.48       75.09       74.72       74.36       74.02       73.70    
        73.39       73.10       72.82       72.55       72.30       72.07       71.84       71.63       71.43       71.25    
        71.08       70.92       70.77       70.64       70.51       70.39       70.29       70.19       70.09       70.00    
  15  -1000.0       82.26       82.23       82.17       82.08       81.95       81.80       81.62       81.41       81.17    
        80.90       80.60       80.27       79.91       79.53       79.12       78.71       78.30       77.89       77.49    
        77.04       76.61       76.17       75.75       75.34       74.94       74.55       74.19       73.85       73.52    
        73.21       72.92       72.64       72.38       72.13       71.90       71.68       71.48       71.29       71.11    
        70.95       70.80       70.66       70.53       70.42       70.32       70.23       70.15       70.07       70.00    
  16  -1000.0       82.32       82.28       82.22       82.13       82.00       81.85       81.66       81.45       81.20    
        80.92       80.62       80.28       79.92       79.52       79.10       78.68       78.26       77.84       77.43    
        76.96       76.50       76.05       75.60       75.17       74.75       74.36       73.99       73.64       73.31    
        73.01       72.72       72.44       72.19       71.94       71.72       71.50       71.31       71.12       70.95    
        70.80       70.66       70.53       70.42       70.32       70.24       70.16       70.10       70.05       70.00    
  17  -1000.0       82.38       82.35       82.28       82.19       82.06       81.90       81.71       81.49       81.24    
        80.95       80.64       80.29       79.92       79.51       79.08       78.65       78.22       77.79       77.36    
        76.87       76.38       75.90       75.43       74.98       74.54       74.13       73.76       73.41       73.08    
        72.77       72.49       72.22       71.97       71.73       71.51       71.31       71.12       70.94       70.78    
        70.63       70.50       70.39       70.29       70.20       70.14       70.08       70.05       70.02       70.00    
  18  -1000.0       82.45       82.41       82.35       82.25       82.12       81.96       81.76       81.54       81.28    
        80.99       80.66       80.31       79.92       79.51       79.06       78.62       78.17       77.73       77.29    
        76.76       76.25       75.74       75.24       74.75       74.28       73.87       73.48       73.13       72.81    
        72.51       72.23       71.97       71.73       71.50       71.29       71.09       70.91       70.74       70.59    
        70.45       70.33       70.23       70.14       70.07       70.02       69.99       69.98       69.98       70.00    
  19  -1000.0       82.52       82.49       82.43       82.33       82.19       82.03       81.83       81.59       81.33    
        81.03       80.69       80.33       79.93       79.50       79.04       78.58       78.12       77.66       77.20    
        76.65       76.09       75.55       75.02       74.50       73.99       73.55       73.17       72.82       72.51    
        72.22       71.95       71.70       71.46       71.25       71.04       70.85       70.68       70.52       70.37    
        70.25       70.14       70.04       69.97       69.91       69.88       69.87       69.89       69.94       70.00    
  20  -1000.0       82.61       82.58       82.51       82.41       82.27       82.10       81.90       81.66       81.38    
        81.07       80.73       80.35       79.94       79.50       79.02       78.54       78.06       77.59       77.12    
        76.51       75.91       75.33       74.77       74.22       73.67       73.21       72.82       72.47       72.17    
        71.89       71.63       71.39       71.17       70.97       70.77       70.59       70.43       70.28       70.14    
        70.02       69.92       69.84       69.77       69.73       69.71       69.73       69.78       69.87       70.00    
  21  -1000.0       82.71       82.67       82.60       82.50       82.36       82.19       81.98       81.73       81.45    
        81.13       80.77       80.38       79.96       79.49       79.00       78.50       78.00       77.51       77.02    
        76.35       75.70       75.08       74.49       73.92       73.35       72.89       72.49       72.13       71.82    
        71.55       71.30       71.07       70.86       70.66       70.48       70.31       70.15       70.01       69.88    
        69.77       69.68       69.60       69.55       69.51       69.51       69.54       69.62       69.77       70.00    
  22  -1000.0       82.81       82.78       82.71       82.60       82.46       82.28       82.07       81.81       81.52    
        81.19       80.83       80.42       79.98       79.50       78.98       78.46       77.94       77.42       76.90    
        76.15       75.44       74.78       74.16       73.60       73.08       72.62       72.21       71.84       71.53    
        71.25       71.00       70.77       70.57       70.38       70.20       70.04       69.89       69.76       69.64    
        69.53       69.44       69.37       69.32       69.30       69.31       69.36       69.48       69.67       70.00    
  23  -1000.0       82.93       82.89       82.82       82.72       82.57       82.39       82.17       81.91       81.61    
        81.27       80.89       80.47       80.01       79.51       78.97       78.43       77.89       77.35       76.82    
        76.01       75.27       74.59       73.98       73.44       72.97       72.48       72.03       71.65       71.32    
        71.03       70.78       70.56       70.36       70.17       70.00       69.85       69.70       69.57       69.46    
        69.36       69.27       69.21       69.17       69.15       69.17       69.24       69.38       69.61       70.00    
  24  -1000.0       83.06       83.02       82.95       82.84       82.70       82.51       82.29       82.02       81.72    
        81.37       80.97       80.53       80.05       79.53       78.98       78.43       77.88       77.33       76.79    
        75.98       75.24       74.56       73.96       73.49       73.14       72.54       72.02       71.60       71.25    
        70.96       70.71       70.49       70.29       70.11       69.94       69.79       69.65       69.53       69.41    
        69.32       69.24       69.18       69.14       69.13       69.16       69.24       69.39       69.63       70.00    
  25  -1000.0       83.20       83.16       83.09       82.98       82.83       82.65       82.42       82.15       81.84    
        81.48       81.07       80.62       80.13       79.60       79.05       78.49       77.93       77.38       76.84    
        76.13       75.39       74.72       74.15       73.78       73.90       72.83       72.20       71.75       71.39    
        71.10       70.85       70.63       70.44       70.26       70.10       69.95       69.81       69.69       69.58    
        69.49       69.41       69.36       69.32       69.32       69.36       69.45       69.61       69.83       70.00    
  26  -1000.0       83.05       83.01       82.94       82.83       82.68       82.50       82.27       82.00       81.68    
        81.31       80.90       80.45       79.95       79.43       78.87       78.31       77.75       77.20       76.67    
        75.79       75.00       74.29       73.67       73.17       72.80       72.19       71.65       71.22       70.87    
        70.57       70.32       70.10       69.90       69.72       69.56       69.41       69.27       69.15       69.04    
        68.95       68.87       68.81       68.78       68.78       68.83       68.95       69.15       69.47       70.00    
  27  -1000.0       82.91       82.87       82.80       82.69       82.55       82.36       82.14       81.87       81.56    
        81.20       80.79       80.35       79.86       79.34       78.79       78.24       77.69       77.15       76.61    
        75.70       74.89       74.16       73.50       72.91       72.41       71.88       71.41       71.01       70.67    
        70.37       70.12       69.90       69.70       69.52       69.36       69.21       69.07       68.95       68.83    
        68.74       68.66       68.60       68.57       68.58       68.63       68.76       68.99       69.37       70.00    
  28  -1000.0       82.78       82.75       82.68       82.57       82.42       82.24       82.02       81.76       81.45    
        81.11       80.72       80.29       79.82       79.31       78.78       78.24       77.71       77.18       76.66    
        75.80       75.01       74.28       73.60       72.96       72.39       71.87       71.42       71.03       70.70    
        70.42       70.17       69.95       69.75       69.57       69.40       69.25       69.11       68.98       68.87    
        68.77       68.69       68.63       68.60       68.61       68.66       68.78       69.01       69.39       70.00    
  29  -1000.0       82.67       82.63       82.56       82.46       82.31       82.13       81.92       81.66       81.37    
        81.03       80.66       80.25       79.80       79.32       78.81       78.30       77.79       77.28       76.78    
        76.03       75.30       74.61       73.94       73.28       72.60       72.06       71.61       71.24       70.91    
        70.63       70.38       70.16       69.96       69.78       69.61       69.45       69.31       69.18       69.07    
        68.97       68.88       68.82       68.78       68.78       68.83       68.94       69.14       69.48       70.00    
  30  -1000.0       82.56       82.53       82.46       82.36       82.22       82.04       81.83       81.58       81.30    
        80.97       80.61       80.22       79.79       79.33       78.84       78.35       77.86       77.38       76.89    
        76.21       75.54       74.88       74.23       73.58       72.90       72.36       71.92       71.55       71.23    
        70.95       70.70       70.48       70.27       70.09       69.92       69.76       69.61       69.48       69.36    
        69.25       69.16       69.10       69.05       69.04       69.07       69.16       69.32       69.59       70.00    
  31  -1000.0       82.47       82.44       82.37       82.27       82.13       81.96       81.75       81.51       81.23    
        80.92       80.58       80.20       79.79       79.34       78.87       78.40       77.93       77.46       76.99    
        76.36       75.74       75.12       74.50       73.88       73.24       72.72       72.29       71.92       71.61    
        71.33       71.08       70.85       70.64       70.44       70.26       70.10       69.95       69.81       69.68    
        69.57       69.48       69.40       69.35       69.33       69.35       69.41       69.52       69.72       70.00    
  32  -1000.0       82.39       82.35       82.29       82.19       82.05       81.89       81.68       81.45       81.18    
        80.88       80.55       80.18       79.78       79.36       78.90       78.44       77.99       77.53       77.08    
        76.50       75.92       75.34       74.76       74.17       73.58       73.09       72.68       72.32       72.00    
        71.72       71.46       71.22       71.00       70.80       70.61       70.43       70.27       70.12       69.98    
        69.87       69.77       69.68       69.63       69.59       69.59       69.63       69.71       69.83       70.00    
  33  -1000.0       82.31       82.28       82.21       82.11       81.98       81.82       81.63       81.40       81.14    
        80.85       80.52       80.17       79.78       79.37       78.93       78.49       78.04       77.60       77.17    
        76.62       76.07       75.53       74.99       74.45       73.92       73.46       73.06       72.70       72.38    
        72.09       71.81       71.56       71.33       71.11       70.91       70.73       70.56       70.40       70.26    
        70.13       70.02       69.93       69.86       69.81       69.79       69.80       69.84       69.91       70.00    
  34  -1000.0       82.24       82.21       82.15       82.05       81.92       81.77       81.57       81.35       81.10    
        80.82       80.50       80.16       79.78       79.38       78.95       78.52       78.10       77.67       77.24    
        76.73       76.22       75.71       75.20       74.71       74.23       73.79       73.40       73.04       72.71    
        72.41       72.13       71.87       71.63       71.40       71.19       71.00       70.82       70.65       70.50    
        70.36       70.24       70.14       70.06       70.00       69.96       69.94       69.94       69.97       70.00    
  35  -1000.0       82.18       82.15       82.09       82.00       81.87       81.72       81.53       81.31       81.07    
        80.79       80.48       80.15       79.79       79.40       78.98       78.56       78.14       77.73       77.31    
        76.83       76.35       75.87       75.39       74.93       74.49       74.07       73.69       73.33       73.00    
        72.69       72.41       72.14       71.89       71.66       71.44       71.24       71.05       70.87       70.72    
        70.57       70.44       70.33       70.23       70.15       70.09       70.05       70.02       70.01       70.00    
  36  -1000.0       82.13       82.10       82.04       81.95       81.82       81.67       81.49       81.28       81.04    
        80.77       80.47       80.14       79.79       79.41       79.00       78.59       78.19       77.78       77.38    
        76.92       76.46       76.01       75.56       75.12       74.70       74.31       73.93       73.58       73.25    
        72.94       72.65       72.38       72.12       71.88       71.66       71.45       71.26       71.08       70.91    
        70.75       70.62       70.49       70.38       70.29       70.21       70.14       70.08       70.04       70.00    
  37  -1000.0       82.09       82.05       81.99       81.90       81.78       81.63       81.45       81.25       81.01    
        80.75       80.46       80.14       79.79       79.42       79.02       78.62       78.23       77.83       77.44    
        77.00       76.56       76.13       75.70       75.29       74.89       74.50       74.14       73.79       73.46    
        73.16       72.86       72.59       72.33       72.09       71.86       71.64       71.44       71.25       71.08    
        70.92       70.77       70.63       70.51       70.40       70.30       70.21       70.14       70.07       70.00    
  38  -1000.0       82.05       82.02       81.95       81.86       81.75       81.60       81.42       81.22       80.99    
        80.73       80.45       80.14       79.80       79.43       79.04       78.65       78.26       77.88       77.49    
        77.07       76.65       76.24       75.83       75.43       75.05       74.67       74.32       73.98       73.65    
        73.34       73.05       72.78       72.52       72.27       72.03       71.81       71.61       71.41       71.23    
        71.06       70.90       70.75       70.62       70.49       70.38       70.28       70.18       70.09       70.00    
  39  -1000.0       82.01       81.98       81.92       81.83       81.71       81.57       81.39       81.19       80.97    
        80.72       80.44       80.13       79.80       79.44       79.06       78.68       78.30       77.92       77.54    
        77.13       76.73       76.33       75.94       75.56       75.18       74.82       74.47       74.14       73.81    
        73.51       73.22       72.94       72.68       72.43       72.19       71.96       71.75       71.55       71.36    
        71.18       71.02       70.86       70.71       70.58       70.45       70.33       70.22       70.11       70.00    
  40  -1000.0       81.99       81.95       81.89       81.80       81.68       81.54       81.37       81.17       80.95    
        80.70       80.43       80.13       79.80       79.45       79.08       78.70       78.33       77.95       77.58    
        77.19       76.80       76.42       76.03       75.66       75.30       74.94       74.60       74.27       73.96    
        73.65       73.36       73.08       72.82       72.56       72.32       72.09       71.88       71.67       71.48    
        71.29       71.12       70.95       70.80       70.65       70.51       70.38       70.25       70.12       70.00    
  41  -1000.0       81.97       81.93       81.86       81.77       81.65       81.51       81.34       81.15       80.93    
        80.69       80.42       80.12       79.80       79.46       79.09       78.72       78.35       77.98       77.62    
        77.24       76.86       76.49       76.12       75.75       75.40       75.05       74.72       74.39       74.08    
        73.77       73.48       73.21       72.94       72.68       72.44       72.21       71.99       71.78       71.58    
        71.38       71.20       71.03       70.87       70.71       70.56       70.42       70.27       70.14       70.00    
  42  -1000.0       81.96       81.91       81.84       81.74       81.62       81.48       81.32       81.13       80.91    
        80.67       80.41       80.12       79.80       79.46       79.10       78.74       78.37       78.01       77.65    
        77.28       76.91       76.55       76.19       75.83       75.48       75.14       74.81       74.49       74.18    
        73.88       73.59       73.31       73.04       72.79       72.54       72.31       72.08       71.87       71.66    
        71.47       71.28       71.10       70.93       70.76       70.60       70.45       70.30       70.15       70.00    
  43  -1000.0       81.96       81.91       81.81       81.71       81.59       81.45       81.29       81.10       80.89    
        80.66       80.40       80.11       79.80       79.47       79.11       78.75       78.39       78.04       77.68    
        77.32       76.96       76.60       76.24       75.90       75.55       75.22       74.89       74.57       74.27    
        73.97       73.68       73.40       73.13       72.88       72.63       72.39       72.16       71.94       71.73    
        71.53       71.34       71.16       70.98       70.81       70.64       70.48       70.32       70.16       70.00    
  44  -1000.0       81.95       81.90       81.81       81.68       81.56       81.42       81.26       81.08       80.87    
        80.64       80.38       80.11       79.80       79.47       79.12       78.76       78.41       78.05       77.70    
        77.35       76.99       76.64       76.29       75.95       75.61       75.28       74.96       74.64       74.34    
        74.04       73.75       73.48       73.21       72.95       72.70       72.46       72.23       72.01       71.80    
        71.59       71.39       71.20       71.02       70.84       70.67       70.50       70.33       70.17       70.00    
  45  -1000.0       81.95       81.89       81.80       81.68       81.53       81.39       81.23       81.05       80.85    
        80.62       80.37       80.10       79.80       79.47       79.12       78.77       78.42       78.07       77.72    
        77.37       77.02       76.68       76.33       75.99       75.66       75.33       75.01       74.70       74.40    
        74.10       73.82       73.54       73.27       73.01       72.76       72.52       72.29       72.06       71.85    
        71.64       71.44       71.24       71.05       70.87       70.69       70.52       70.34       70.17       70.00    
  46  -1000.0     -1000.0       81.86       81.78       81.66       81.52       81.35       81.19       81.02       80.82    
        80.60       80.36       80.09       79.79       79.47       79.12       78.78       78.43       78.08       77.74    
        77.39       77.05       76.70       76.36       76.03       75.70       75.37       75.06       74.75       74.44    
        74.15       73.86       73.59       73.32       73.06       72.81       72.56       72.33       72.10       71.89    
        71.67       71.47       71.27       71.08       70.89       70.71       70.53       70.35       70.18       70.00    
  47  -1000.0     -1000.0     -1000.0       81.73       81.64       81.50       81.35       81.15       80.98       80.79    
        80.58       80.34       80.08       79.79       79.47       79.13       78.78       78.44       78.09       77.75    
        77.41       77.06       76.72       76.39       76.05       75.73       75.40       75.09       74.78       74.48    
        74.18       73.90       73.62       73.35       73.09       72.84       72.60       72.36       72.13       71.91    
        71.70       71.50       71.30       71.10       70.91       70.72       70.54       70.36       70.18       70.00    
  48  -1000.0     -1000.0     -1000.0     -1000.0       81.58       81.48       81.34       81.16       80.94       80.76    
        80.56       80.33       80.07       79.79       79.47       79.13       78.78       78.44       78.10       77.76    
        77.42       77.08       76.74       76.40       76.07       75.74       75.42       75.11       74.80       74.50    
        74.21       73.92       73.64       73.38       73.11       72.86       72.62       72.38       72.15       71.93    
        71.72       71.51       71.31       71.11       70.92       70.73       70.55       70.37       70.18       70.00    
  49  -1000.0     -1000.0     -1000.0     -1000.0     -1000.0       81.43       81.33       81.16       80.96       80.73    
        80.55       80.32       80.07       79.78       79.47       79.13       78.79       78.44       78.10       77.76    
        77.42       77.08       76.74       76.41       76.08       75.75       75.43       75.12       74.81       74.51    
        74.22       73.93       73.66       73.39       73.13       72.87       72.63       72.39       72.16       71.94    
        71.73       71.52       71.32       71.12       70.93       70.74       70.55       70.37       70.18       70.00    
  50  -1000.0     -1000.0     -1000.0     -1000.0     -1000.0     -1000.0     -1000.0     -1000.0     -1000.0     -1000.0    
      -1000.0     -1000.0     -1000.0     -1000.0     -1000.0     -1000.0     -1000.0     -1000.0     -1000.0     -1000.0    
      -1000.0     -1000.0     -1000.0     -1000.0     -1000.0     -1000.0     -1000.0     -1000.0     -1000.0     -1000.0    
      -1000.0     -1000.0     -1000.0     -1000.0     -1000.0     -1000.0     -1000.0     -1000.0     -1000.0     -1000.0    
      -1000.0     -1000.0     -1000.0     -1000.0     -1000.0     -1000.0     -1000.0     -1000.0     -1000.0       70.00    
1
              HEAD IN LAYER   2 AT END OF TIME STEP   1 IN STRESS PERIOD    1
  ---------------------------------------------------------------------------

            1           2           3           4           5           6           7           8           9          10
           11          12          13          14          15          16          17          18          19          20
           21          22          23          24          25          26          27          28          29          30
           31          32          33          34          35          36          37          38          39          40
           41          42          43          44          45          46          47          48          49          50
 ........................................................................................................................
   1  -1000.0     -1000.0     -1000.0     -1000.0     -1000.0     -1000.0     -1000.0     -1000.0     -1000.0     -1000.0    
      -1000.0     -1000.0     -1000.0     -1000.0     -1000.0     -1000.0     -1000.0     -1000.0     -1000.0     -1000.0    
      -1000.0     -1000.0     -1000.0     -1000.0     -1000.0     -1000.0     -1000.0     -1000.0     -1000.0     -1000.0    
      -1000.0     -1000.0     -1000.0     -1000.0     -1000.0     -1000.0     -1000.0     -1000.0     -1000.0     -1000.0    
      -1000.0     -1000.0     -1000.0     -1000.0     -1000.0     -1000.0     -1000.0     -1000.0     -1000.0       70.00    
   2  -1000.0     -1000.0     -1000.0     -1000.0     -1000.0     -1000.0     -1000.0       81.26       81.06       80.83    
        80.65       80.42       80.17       79.88       79.56       79.22       78.87       78.53       78.18       77.83    
        77.49       77.15       76.81       76.47       76.14       75.82       75.50       75.18       74.88       74.57    
        74.28       73.99       73.71       73.44       73.18       72.92       72.67       72.43       72.20       71.97    
        71.76       71.54       71.34       71.14       70.94       70.75       70.56       70.37       70.18       70.00    
   3  -1000.0     -1000.0     -1000.0     -1000.0     -1000.0     -1000.0       81.44       81.27       81.05       80.87    
        80.66       80.43       80.17       79.88       79.56       79.22       78.87       78.52       78.18       77.83    
        77.48       77.14       76.80       76.47       76.14       75.81       75.49       75.18       74.87       74.57    
        74.27       73.98       73.71       73.43       73.17       72.91       72.67       72.42       72.19       71.97    
        71.75       71.54       71.33       71.13       70.93       70.74       70.55       70.37       70.18       70.00    
   4  -1000.0     -1000.0     -1000.0     -1000.0     -1000.0       81.61       81.46       81.26       81.09       80.90    
        80.68       80.45       80.18       79.89       79.56       79.22       78.87       78.52       78.17       77.82    
        77.48       77.13       76.79       76.46       76.12       75.80       75.48       75.16       74.85       74.55    
        74.25       73.97       73.69       73.42       73.15       72.90       72.65       72.41       72.18       71.95    
        71.73       71.52       71.32       71.12       70.93       70.74       70.55       70.36       70.18       70.00    
   5  -1000.0     -1000.0     -1000.0     -1000.0       81.78       81.63       81.46       81.30       81.12       80.93    
        80.71       80.46       80.19       79.89       79.57       79.22       78.86       78.51       78.16       77.81    
        77.46       77.12       76.78       76.44       76.10       75.78       75.45       75.14       74.83       74.52    
        74.23       73.94       73.66       73.39       73.12       72.87       72.62       72.38       72.15       71.93    
        71.71       71.50       71.30       71.10       70.91       70.72       70.54       70.36       70.18       70.00    
   6  -1000.0     -1000.0     -1000.0       81.92       81.79       81.64       81.50       81.34       81.16       80.95    
        80.73       80.48       80.20       79.90       79.57       79.21       78.86       78.51       78.15       77.80    
        77.45       77.10       76.75       76.41       76.08       75.75       75.42       75.11       74.80       74.49    
        74.19       73.91       73.62       73.35       73.09       72.83       72.59       72.35       72.12       71.90    
        71.68       71.48       71.28       71.08       70.89       70.71       70.53       70.35       70.18       70.00    
   7  -1000.0     -1000.0       82.02       81.93       81.80       81.68       81.53       81.37       81.19       80.98    
        80.75       80.49       80.21       79.90       79.57       79.21       78.85       78.49       78.14       77.78    
        77.43       77.07       76.73       76.38       76.05       75.71       75.39       75.07       74.75       74.45    
        74.15       73.86       73.58       73.31       73.04       72.79       72.54       72.30       72.08       71.86    
        71.64       71.44       71.24       71.05       70.87       70.69       70.51       70.34       70.17       70.00    
   8  -1000.0       82.07       82.02       81.93       81.83       81.71       81.57       81.40       81.21       81.00    
        80.76       80.50       80.22       79.91       79.57       79.21       78.84       78.48       78.12       77.76    
        77.40       77.05       76.69       76.35       76.01       75.67       75.34       75.02       74.70       74.40    
        74.10       73.81       73.52       73.25       72.99       72.73       72.49       72.25       72.02       71.81    
        71.60       71.40       71.21       71.02       70.84       70.67       70.50       70.33       70.16       70.00    
   9  -1000.0       82.08       82.03       81.96       81.86       81.74       81.60       81.43       81.24       81.02    
        80.78       80.52       80.23       79.91       79.57       79.20       78.83       78.46       78.10       77.74    
        77.37       77.01       76.66       76.30       75.96       75.62       75.29       74.96       74.65       74.34    
        74.03       73.74       73.46       73.18       72.92       72.66       72.42       72.19       71.96       71.75    
        71.54       71.35       71.16       70.98       70.81       70.64       70.48       70.31       70.16       70.00    
  10  -1000.0       82.09       82.05       81.98       81.89       81.77       81.63       81.46       81.26       81.04    
        80.80       80.53       80.23       79.91       79.56       79.19       78.82       78.45       78.08       77.71    
        77.34       76.97       76.61       76.25       75.91       75.56       75.23       74.90       74.58       74.26    
        73.96       73.67       73.38       73.11       72.84       72.59       72.34       72.11       71.89       71.68    
        71.48       71.29       71.11       70.93       70.77       70.61       70.45       70.30       70.15       70.00    
  11  -1000.0       82.11       82.07       82.01       81.92       81.80       81.66       81.49       81.29       81.07    
        80.82       80.54       80.24       79.91       79.56       79.18       78.80       78.42       78.05       77.67    
        77.30       76.92       76.56       76.20       75.84       75.50       75.15       74.82       74.50       74.18    
        73.88       73.58       73.29       73.02       72.75       72.50       72.26       72.03       71.81       71.60    
        71.40       71.22       71.04       70.88       70.72       70.57       70.42       70.28       70.14       70.00    
  12  -1000.0       82.14       82.11       82.04       81.95       81.83       81.69       81.52       81.32       81.09    
        80.83       80.55       80.25       79.91       79.55       79.17       78.78       78.40       78.01       77.63    
        77.25       76.87       76.50       76.13       75.77       75.42       75.07       74.74       74.41       74.09    
        73.78       73.48       73.20       72.92       72.65       72.40       72.16       71.93       71.71       71.51    
        71.32       71.14       70.97       70.82       70.67       70.53       70.39       70.26       70.13       70.00    
  13  -1000.0       82.17       82.14       82.08       81.99       81.87       81.72       81.55       81.34       81.11    
        80.85       80.57       80.25       79.91       79.55       79.15       78.76       78.37       77.98       77.59    
        77.20       76.81       76.43       76.06       75.69       75.33       74.98       74.64       74.31       73.99    
        73.68       73.38       73.09       72.81       72.54       72.28       72.04       71.82       71.60       71.41    
        71.22       71.05       70.89       70.75       70.61       70.48       70.35       70.23       70.12       70.00    
  14  -1000.0       82.21       82.18       82.12       82.03       81.91       81.76       81.58       81.37       81.14    
        80.87       80.58       80.26       79.91       79.54       79.14       78.74       78.34       77.94       77.54    
        77.14       76.75       76.36       75.98       75.61       75.24       74.88       74.54       74.20       73.88    
        73.56       73.26       72.96       72.68       72.41       72.16       71.92       71.69       71.48       71.29    
        71.11       70.95       70.80       70.67       70.54       70.42       70.31       70.20       70.10       70.00    
  15  -1000.0       82.26       82.23       82.17       82.08       81.95       81.80       81.62       81.41       81.17    
        80.90       80.60       80.27       79.91       79.53       79.12       78.71       78.30       77.89       77.49    
        77.08       76.67       76.28       75.89       75.51       75.14       74.77       74.42       74.08       73.75    
        73.43       73.13       72.83       72.55       72.27       72.02       71.78       71.55       71.35       71.16    
        70.99       70.84       70.70       70.58       70.47       70.36       70.27       70.17       70.09       70.00    
  16  -1000.0       82.32       82.28       82.22       82.13       82.00       81.85       81.66       81.45       81.20    
        80.92       80.62       80.28       79.92       79.52       79.10       78.68       78.26       77.84       77.43    
        77.01       76.59       76.19       75.79       75.40       75.02       74.65       74.30       73.95       73.62    
        73.30       72.99       72.69       72.40       72.13       71.87       71.62       71.40       71.20       71.02    
        70.86       70.72       70.60       70.49       70.39       70.30       70.22       70.14       70.07       70.00    
  17  -1000.0       82.38       82.35       82.28       82.19       82.06       81.90       81.71       81.49       81.24    
        80.95       80.64       80.29       79.92       79.51       79.08       78.65       78.22       77.79       77.36    
        76.93       76.51       76.09       75.68       75.29       74.90       74.53       74.16       73.81       73.48    
        73.15       72.84       72.54       72.24       71.97       71.70       71.46       71.23       71.03       70.86    
        70.71       70.59       70.48       70.38       70.30       70.23       70.16       70.10       70.05       70.00    
  18  -1000.0       82.45       82.41       82.35       82.25       82.12       81.96       81.76       81.54       81.28    
        80.99       80.66       80.31       79.92       79.51       79.06       78.62       78.17       77.73       77.29    
        76.85       76.41       75.99       75.57       75.16       74.77       74.39       74.02       73.67       73.33    
        73.00       72.68       72.38       72.08       71.80       71.53       71.28       71.05       70.85       70.69    
        70.55       70.44       70.35       70.27       70.21       70.15       70.11       70.07       70.03       70.00    
  19  -1000.0       82.52       82.49       82.43       82.33       82.19       82.03       81.83       81.59       81.33    
        81.03       80.69       80.33       79.93       79.50       79.04       78.58       78.12       77.66       77.20    
        76.75       76.31       75.88       75.45       75.04       74.63       74.25       73.88       73.52       73.18    
        72.85       72.53       72.22       71.92       71.63       71.35       71.09       70.86       70.66       70.51    
        70.39       70.30       70.22       70.16       70.12       70.08       70.05       70.02       70.01       70.00    
  20  -1000.0       82.61       82.58       82.51       82.41       82.27       82.10       81.90       81.66       81.38    
        81.07       80.73       80.35       79.94       79.50       79.02       78.54       78.06       77.59       77.12    
        76.66       76.21       75.77       75.33       74.91       74.50       74.11       73.73       73.37       73.03    
        72.70       72.37       72.06       71.76       71.46       71.18       70.91       70.67       70.47       70.33    
        70.23       70.15       70.10       70.06       70.02       70.00       69.99       69.98       69.99       70.00    
  21  -1000.0       82.71       82.67       82.60       82.50       82.36       82.19       81.98       81.73       81.45    
        81.13       80.77       80.38       79.96       79.49       79.00       78.50       78.00       77.51       77.02    
        76.56       76.10       75.65       75.22       74.79       74.38       73.98       73.60       73.24       72.89    
        72.56       72.23       71.92       71.61       71.32       71.02       70.74       70.49       70.28       70.15    
        70.08       70.03       69.99       69.96       69.94       69.93       69.93       69.94       69.97       70.00    
  22  -1000.0       82.81       82.78       82.71       82.60       82.46       82.28       82.07       81.81       81.52    
        81.19       80.83       80.42       79.98       79.50       78.98       78.46       77.94       77.42       76.90    
        76.46       76.00       75.55       75.11       74.68       74.27       73.87       73.49       73.12       72.77    
        72.44       72.11       71.80       71.50       71.20       70.90       70.62       70.35       70.12       70.02    
        69.97       69.93       69.90       69.88       69.87       69.87       69.88       69.91       69.95       70.00    
  23  -1000.0       82.93       82.89       82.82       82.72       82.57       82.39       82.17       81.91       81.61    
        81.27       80.89       80.47       80.01       79.51       78.97       78.43       77.89       77.35       76.82    
        76.38       75.92       75.47       75.03       74.60       74.19       73.79       73.40       73.03       72.68    
        72.34       72.02       71.71       71.41       71.12       70.83       70.56       70.30       70.10       69.98    
        69.92       69.87       69.84       69.82       69.82       69.82       69.84       69.88       69.93       70.00    
  24  -1000.0       83.06       83.02       82.95       82.84       82.70       82.51       82.29       82.02       81.72    
        81.37       80.97       80.53       80.05       79.53       78.98       78.43       77.88       77.33       76.79    
        76.34       75.87       75.41       74.97       74.55       74.14       73.73       73.34       72.97       72.61    
        72.28       71.96       71.65       71.36       71.07       70.80       70.54       70.31       70.12       70.00    
        69.91       69.86       69.82       69.80       69.79       69.80       69.82       69.87       69.93       70.00    
  25  -1000.0       83.20       83.16       83.09       82.98       82.83       82.65       82.42       82.15       81.84    
        81.48       81.07       80.62       80.13       79.60       79.05       78.49       77.93       77.38       76.84    
        76.31       75.83       75.37       74.93       74.51       74.11       73.69       73.30       72.92       72.57    
        72.24       71.92       71.62       71.34       71.06       70.80       70.56       70.34       70.17       70.03    
        69.93       69.86       69.82       69.79       69.78       69.78       69.81       69.86       69.92       70.00    
  26  -1000.0       83.05       83.01       82.94       82.83       82.68       82.50       82.27       82.00       81.68    
        81.31       80.90       80.45       79.95       79.43       78.87       78.31       77.75       77.20       76.67    
        76.24       75.78       75.33       74.89       74.46       74.05       73.64       73.25       72.88       72.53    
        72.20       71.89       71.60       71.32       71.05       70.80       70.57       70.37       70.20       70.06    
        69.95       69.87       69.81       69.77       69.76       69.76       69.79       69.84       69.91       70.00    
  27  -1000.0       82.91       82.87       82.80       82.69       82.55       82.36       82.14       81.87       81.56    
        81.20       80.79       80.35       79.86       79.34       78.79       78.24       77.69       77.15       76.62    
        76.21       75.77       75.32       74.87       74.44       74.03       73.62       73.23       72.87       72.52    
        72.20       71.89       71.60       71.33       71.07       70.83       70.61       70.42       70.25       70.10    
        69.99       69.90       69.83       69.78       69.76       69.76       69.78       69.83       69.91       70.00    
  28  -1000.0       82.78       82.75       82.68       82.57       82.42       82.24       82.02       81.76       81.45    
        81.11       80.72       80.29       79.82       79.31       78.78       78.24       77.71       77.18       76.66    
        76.25       75.80       75.35       74.91       74.47       74.05       73.64       73.26       72.90       72.56    
        72.24       71.94       71.66       71.39       71.14       70.91       70.69       70.50       70.33       70.18    
        70.06       69.96       69.88       69.83       69.80       69.79       69.80       69.84       69.91       70.00    
  29  -1000.0       82.67       82.63       82.56       82.46       82.31       82.13       81.92       81.66       81.37    
        81.03       80.66       80.25       79.80       79.32       78.81       78.30       77.79       77.28       76.78    
        76.33       75.88       75.43       74.98       74.54       74.12       73.72       73.33       72.98       72.64    
        72.33       72.03       71.75       71.49       71.25       71.02       70.81       70.62       70.44       70.29    
        70.17       70.06       69.97       69.91       69.86       69.84       69.85       69.87       69.93       70.00    
  30  -1000.0       82.56       82.53       82.46       82.36       82.22       82.04       81.83       81.58       81.30    
        80.97       80.61       80.22       79.79       79.33       78.84       78.35       77.86       77.38       76.89    
        76.43       75.98       75.53       75.08       74.65       74.22       73.82       73.45       73.09       72.76    
        72.45       72.16       71.88       71.63       71.38       71.16       70.95       70.76       70.58       70.43    
        70.29       70.18       70.08       70.01       69.95       69.92       69.91       69.92       69.95       70.00    
  31  -1000.0       82.47       82.44       82.37       82.27       82.13       81.96       81.75       81.51       81.23    
        80.92       80.58       80.20       79.79       79.34       78.87       78.40       77.93       77.46       76.99    
        76.53       76.08       75.64       75.20       74.77       74.35       73.96       73.59       73.24       72.91    
        72.60       72.31       72.04       71.78       71.54       71.31       71.11       70.91       70.74       70.58    
        70.44       70.31       70.21       70.12       70.05       70.01       69.98       69.97       69.98       70.00    
  32  -1000.0       82.39       82.35       82.29       82.19       82.05       81.88       81.68       81.45       81.18    
        80.88       80.55       80.18       79.78       79.36       78.90       78.44       77.99       77.53       77.08    
        76.63       76.19       75.75       75.32       74.90       74.49       74.11       73.74       73.40       73.07    
        72.77       72.48       72.21       71.95       71.71       71.48       71.27       71.07       70.89       70.73    
        70.58       70.45       70.34       70.24       70.16       70.10       70.05       70.02       70.01       70.00    
  33  -1000.0       82.31       82.28       82.21       82.11       81.98       81.82       81.63       81.40       81.14    
        80.85       80.52       80.17       79.78       79.37       78.93       78.49       78.04       77.60       77.17    
        76.73       76.29       75.87       75.45       75.04       74.64       74.26       73.90       73.56       73.24    
        72.93       72.65       72.37       72.12       71.87       71.65       71.43       71.23       71.05       70.88    
        70.73       70.59       70.46       70.36       70.26       70.19       70.12       70.07       70.03       70.00    
  34  -1000.0       82.24       82.21       82.15       82.05       81.92       81.77       81.57       81.35       81.10    
        80.82       80.50       80.16       79.78       79.38       78.95       78.52       78.10       77.67       77.24    
        76.81       76.39       75.97       75.57       75.17       74.78       74.41       74.06       73.72       73.40    
        73.10       72.81       72.54       72.28       72.04       71.81       71.59       71.39       71.20       71.02    
        70.86       70.72       70.58       70.46       70.36       70.27       70.19       70.12       70.06       70.00    
  35  -1000.0       82.18       82.15       82.09       82.00       81.87       81.72       81.53       81.31       81.07    
        80.79       80.48       80.15       79.79       79.40       78.98       78.56       78.14       77.73       77.31    
        76.90       76.48       76.08       75.68       75.29       74.92       74.55       74.21       73.87       73.56    
        73.26       72.97       72.69       72.44       72.19       71.96       71.74       71.53       71.34       71.16    
        70.99       70.83       70.69       70.56       70.45       70.34       70.24       70.16       70.08       70.00    
  36  -1000.0       82.13       82.10       82.04       81.95       81.82       81.67       81.49       81.28       81.04    
        80.77       80.47       80.14       79.79       79.41       79.00       78.59       78.19       77.78       77.38    
        76.97       76.57       76.17       75.79       75.41       75.04       74.69       74.34       74.02       73.70    
        73.40       73.11       72.84       72.58       72.33       72.10       71.87       71.66       71.46       71.28    
        71.10       70.94       70.79       70.65       70.52       70.41       70.30       70.19       70.10       70.00    
  37  -1000.0       82.09       82.05       81.99       81.90       81.78       81.63       81.45       81.25       81.01    
        80.75       80.46       80.14       79.79       79.42       79.02       78.62       78.23       77.83       77.44    
        77.04       76.65       76.26       75.88       75.52       75.16       74.81       74.47       74.15       73.83    
        73.53       73.25       72.97       72.71       72.46       72.23       72.00       71.78       71.58       71.39    
        71.21       71.04       70.88       70.73       70.60       70.46       70.34       70.22       70.11       70.00    
  38  -1000.0       82.05       82.02       81.95       81.86       81.75       81.60       81.42       81.22       80.99    
        80.73       80.45       80.14       79.80       79.43       79.04       78.65       78.26       77.88       77.49    
        77.10       76.72       76.34       75.97       75.61       75.26       74.92       74.58       74.26       73.95    
        73.66       73.37       73.10       72.83       72.58       72.34       72.11       71.90       71.69       71.49    
        71.31       71.13       70.96       70.81       70.66       70.52       70.38       70.25       70.12       70.00    
  39  -1000.0       82.01       81.98       81.92       81.83       81.71       81.57       81.39       81.19       80.97    
        80.72       80.44       80.13       79.80       79.44       79.06       78.68       78.30       77.92       77.54    
        77.16       76.78       76.41       76.05       75.70       75.35       75.01       74.69       74.37       74.06    
        73.76       73.48       73.21       72.94       72.69       72.45       72.22       71.99       71.78       71.58    
        71.39       71.21       71.04       70.87       70.71       70.56       70.42       70.27       70.14       70.00    
  40  -1000.0       81.99       81.95       81.89       81.80       81.68       81.54       81.37       81.17       80.95    
        80.70       80.43       80.13       79.80       79.45       79.08       78.70       78.33       77.95       77.58    
        77.21       76.84       76.48       76.12       75.77       75.43       75.10       74.78       74.46       74.16    
        73.86       73.58       73.30       73.04       72.78       72.54       72.31       72.08       71.87       71.66    
        71.47       71.28       71.10       70.93       70.76       70.60       70.45       70.30       70.15       70.00    
  41  -1000.0       81.97       81.93       81.86       81.77       81.65       81.51       81.34       81.15       80.93    
        80.69       80.42       80.12       79.80       79.46       79.09       78.72       78.35       77.98       77.62    
        77.25       76.89       76.54       76.18       75.84       75.50       75.18       74.85       74.54       74.24    
        73.95       73.66       73.39       73.12       72.87       72.62       72.39       72.16       71.94       71.73    
        71.53       71.34       71.15       70.98       70.80       70.64       70.47       70.31       70.16       70.00    
  42  -1000.0       81.96       81.91       81.84       81.74       81.62       81.48       81.32       81.13       80.91    
        80.67       80.41       80.12       79.80       79.46       79.10       78.74       78.37       78.01       77.65    
        77.29       76.94       76.58       76.24       75.90       75.57       75.24       74.92       74.61       74.31    
        74.02       73.74       73.46       73.20       72.94       72.70       72.46       72.23       72.01       71.80    
        71.59       71.39       71.20       71.02       70.84       70.67       70.50       70.33       70.16       70.00    
  43  -1000.0       81.96       81.91       81.81       81.71       81.59       81.45       81.29       81.10       80.89    
        80.66       80.40       80.11       79.80       79.47       79.11       78.75       78.39       78.04       77.68    
        77.32       76.97       76.63       76.28       75.95       75.62       75.30       74.98       74.68       74.38    
        74.08       73.80       73.53       73.26       73.01       72.76       72.52       72.29       72.06       71.85    
        71.64       71.44       71.24       71.05       70.87       70.69       70.51       70.34       70.17       70.00    
  44  -1000.0     -1000.0       81.90       81.81       81.68       81.56       81.42       81.26       81.08       80.87    
        80.64       80.38       80.10       79.80       79.47       79.12       78.76       78.41       78.05       77.70    
        77.35       77.00       76.66       76.32       75.99       75.66       75.35       75.03       74.73       74.43    
        74.14       73.86       73.58       73.32       73.06       72.81       72.57       72.34       72.11       71.89    
        71.68       71.48       71.28       71.08       70.90       70.71       70.53       70.35       70.18       70.00    
  45  -1000.0     -1000.0     -1000.0       81.80       81.68       81.53       81.39       81.23       81.05       80.85    
        80.62       80.37       80.10       79.80       79.47       79.12       78.77       78.42       78.07       77.72    
        77.37       77.03       76.69       76.36       76.03       75.70       75.38       75.07       74.77       74.47    
        74.18       73.90       73.63       73.36       73.10       72.85       72.61       72.38       72.15       71.93    
        71.71       71.51       71.31       71.11       70.92       70.73       70.54       70.36       70.18       70.00    
  46  -1000.0     -1000.0     -1000.0     -1000.0       81.66       81.52       81.35       81.19       81.02       80.82    
        80.60       80.36       80.09       79.79       79.47       79.12       78.78       78.43       78.08       77.74    
        77.39       77.05       76.71       76.38       76.05       75.73       75.41       75.11       74.80       74.51    
        74.22       73.94       73.66       73.40       73.14       72.89       72.64       72.41       72.18       71.96    
        71.74       71.53       71.33       71.13       70.93       70.74       70.55       70.37       70.18       70.00    
  47  -1000.0     -1000.0     -1000.0     -1000.0     -1000.0       81.50       81.35       81.15       80.98       80.79    
        80.58       80.34       80.08       79.79       79.47       79.13       78.78       78.44       78.09       77.75    
        77.41       77.07       76.73       76.40       76.07       75.75       75.44       75.13       74.83       74.53    
        74.24       73.96       73.69       73.42       73.16       72.91       72.67       72.43       72.20       71.98    
        71.76       71.55       71.34       71.14       70.95       70.75       70.56       70.37       70.19       70.00    
  48  -1000.0     -1000.0     -1000.0     -1000.0     -1000.0     -1000.0       81.34       81.16       80.94       80.76    
        80.56       80.33       80.07       79.79       79.47       79.13       78.78       78.44       78.10       77.76    
        77.41       77.08       76.74       76.41       76.09       75.77       75.45       75.14       74.84       74.55    
        74.26       73.98       73.71       73.44       73.18       72.93       72.68       72.45       72.22       71.99    
        71.77       71.56       71.36       71.15       70.95       70.76       70.57       70.38       70.19       70.00    
  49  -1000.0     -1000.0     -1000.0     -1000.0     -1000.0     -1000.0     -1000.0       81.16       80.96       80.73    
        80.55       80.32       80.07       79.78       79.47       79.13       78.79       78.44       78.10       77.76    
        77.42       77.08       76.75       76.42       76.09       75.77       75.46       75.15       74.85       74.56    
        74.27       73.99       73.71       73.45       73.19       72.94       72.69       72.46       72.22       72.00    
        71.78       71.57       71.36       71.16       70.96       70.76       70.57       70.38       70.19       70.00    
  50  -1000.0     -1000.0     -1000.0     -1000.0     -1000.0     -1000.0     -1000.0     -1000.0     -1000.0     -1000.0    
      -1000.0     -1000.0     -1000.0     -1000.0     -1000.0     -1000.0     -1000.0     -1000.0     -1000.0     -1000.0    
      -1000.0     -1000.0     -1000.0     -1000.0     -1000.0     -1000.0     -1000.0     -1000.0     -1000.0     -1000.0    
      -1000.0     -1000.0     -1000.0     -1000.0     -1000.0     -1000.0     -1000.0     -1000.0     -1000.0     -1000.0    
      -1000.0     -1000.0     -1000.0     -1000.0     -1000.0     -1000.0     -1000.0     -1000.0     -1000.0       70.00    
1
              HEAD IN LAYER   3 AT END OF TIME STEP   1 IN STRESS PERIOD    1
  ---------------------------------------------------------------------------

            1           2           3           4           5           6           7           8           9          10
           11          12          13          14          15          16          17          18          19          20
           21          22          23          24          25          26          27          28          29          30
           31          32          33          34          35          36          37          38          39          40
[...]
        76.54       76.22       75.90       75.57       75.23       74.89       74.55       74.20       73.84       73.48    
        73.12       72.74       72.34       71.92       71.47       70.95       70.36       69.66       68.96       69.27    
        69.59       69.80       69.93       70.00       70.04       70.05       70.05       70.04       70.02       70.00    
  24  -1000.0       83.06       83.02       82.95       82.84       82.70       82.51       82.29       82.02       81.72    
        81.37       80.97       80.53       80.05       79.53       78.98       78.43       77.88       77.33       76.79    
        76.50       76.19       75.87       75.54       75.21       74.87       74.53       74.18       73.83       73.48    
        73.12       72.75       72.36       71.96       71.54       71.09       70.61       70.14       69.77       69.75    
        69.84       69.94       70.00       70.05       70.06       70.07       70.06       70.04       70.02       70.00    
  25  -1000.0       83.20       83.16       83.09       82.98       82.83       82.65       82.42       82.15       81.84    
        81.48       81.07       80.62       80.13       79.60       79.05       78.49       77.93       77.38       76.84    
        76.48       76.16       75.84       75.52       75.19       74.86       74.52       74.18       73.84       73.49    
        73.13       72.77       72.41       72.03       71.64       71.25       70.86       70.50       70.24       70.12    
        70.09       70.10       70.11       70.12       70.11       70.10       70.08       70.06       70.03       70.00    
  26  -1000.0       83.05       83.01       82.94       82.83       82.68       82.50       82.27       82.00       81.68    
        81.31       80.90       80.45       79.95       79.43       78.87       78.31       77.76       77.20       76.67    
        76.42       76.13       75.83       75.51       75.19       74.86       74.53       74.19       73.85       73.51    
        73.17       72.82       72.47       72.12       71.76       71.41       71.08       70.79       70.55       70.40    
        70.31       70.26       70.23       70.20       70.17       70.14       70.11       70.07       70.04       70.00    
  27  -1000.0       82.91       82.87       82.80       82.69       82.55       82.36       82.14       81.87       81.56    
        81.20       80.79       80.35       79.86       79.34       78.79       78.24       77.69       77.15       76.62    
        76.40       76.13       75.83       75.52       75.20       74.88       74.55       74.21       73.88       73.55    
        73.21       72.88       72.54       72.21       71.88       71.57       71.27       71.01       70.79       70.62    
        70.50       70.41       70.35       70.29       70.24       70.19       70.14       70.09       70.05       70.00    
  28  -1000.0       82.78       82.75       82.68       82.57       82.42       82.24       82.02       81.76       81.45    
        81.11       80.72       80.29       79.82       79.31       78.78       78.24       77.71       77.18       76.66    
        76.43       76.15       75.86       75.55       75.23       74.90       74.58       74.25       73.92       73.59    
        73.27       72.94       72.62       72.31       72.00       71.71       71.44       71.19       70.98       70.80    
        70.66       70.55       70.46       70.37       70.30       70.24       70.18       70.12       70.06       70.00    
  29  -1000.0       82.67       82.63       82.56       82.46       82.31       82.13       81.92       81.66       81.37    
        81.03       80.66       80.25       79.80       79.32       78.81       78.30       77.79       77.28       76.78    
        76.50       76.20       75.90       75.58       75.26       74.94       74.62       74.29       73.97       73.65    
        73.33       73.02       72.71       72.41       72.12       71.84       71.58       71.34       71.13       70.95    
        70.80       70.67       70.56       70.46       70.37       70.29       70.21       70.14       70.07       70.00    
  30  -1000.0       82.56       82.53       82.46       82.36       82.22       82.04       81.83       81.58       81.30    
        80.97       80.61       80.22       79.79       79.33       78.84       78.35       77.86       77.38       76.89    
        76.58       76.27       75.95       75.63       75.31       74.99       74.67       74.35       74.03       73.71    
        73.40       73.09       72.79       72.50       72.22       71.96       71.71       71.48       71.27       71.09    
        70.92       70.78       70.65       70.54       70.43       70.34       70.25       70.16       70.08       70.00    
  31  -1000.0       82.47       82.44       82.37       82.27       82.13       81.96       81.75       81.51       81.23    
        80.92       80.58       80.20       79.79       79.34       78.87       78.40       77.93       77.46       76.99    
        76.66       76.34       76.02       75.69       75.37       75.04       74.72       74.40       74.09       73.78    
        73.47       73.17       72.88       72.60       72.33       72.07       71.82       71.60       71.39       71.20    
        71.03       70.88       70.74       70.61       70.50       70.39       70.29       70.19       70.09       70.00    
  32  -1000.0       82.39       82.35       82.29       82.19       82.05       81.88       81.68       81.45       81.18    
        80.88       80.55       80.18       79.78       79.36       78.90       78.44       77.99       77.53       77.08    
        76.75       76.41       76.08       75.76       75.43       75.11       74.78       74.47       74.16       73.85    
        73.55       73.25       72.97       72.69       72.42       72.17       71.93       71.71       71.50       71.31    
        71.13       70.97       70.82       70.68       70.55       70.43       70.32       70.21       70.10       70.00    
  33  -1000.0       82.31       82.28       82.21       82.11       81.98       81.82       81.63       81.40       81.14    
        80.85       80.52       80.17       79.78       79.37       78.93       78.49       78.04       77.60       77.17    
        76.82       76.49       76.15       75.82       75.49       75.17       74.85       74.53       74.22       73.92    
        73.62       73.33       73.05       72.78       72.52       72.27       72.03       71.81       71.60       71.40    
        71.22       71.05       70.89       70.75       70.61       70.48       70.35       70.23       70.12       70.00    
  34  -1000.0       82.24       82.21       82.15       82.05       81.92       81.77       81.57       81.35       81.10    
        80.82       80.50       80.16       79.78       79.38       78.95       78.52       78.10       77.67       77.24    
        76.90       76.56       76.22       75.89       75.56       75.23       74.92       74.60       74.29       73.99    
        73.70       73.41       73.13       72.86       72.61       72.36       72.12       71.90       71.69       71.49    
        71.30       71.12       70.96       70.80       70.66       70.52       70.38       70.25       70.13       70.00    
  35  -1000.0       82.18       82.15       82.09       82.00       81.87       81.72       81.53       81.31       81.07    
        80.79       80.48       80.15       79.79       79.40       78.98       78.56       78.14       77.73       77.31    
        76.97       76.62       76.28       75.95       75.62       75.30       74.98       74.67       74.36       74.06    
        73.77       73.49       73.21       72.95       72.69       72.44       72.21       71.98       71.77       71.56    
        71.37       71.19       71.02       70.86       70.70       70.55       70.41       70.27       70.14       70.00    
  36  -1000.0       82.13       82.10       82.04       81.95       81.82       81.67       81.49       81.28       81.04    
        80.77       80.47       80.14       79.79       79.41       79.00       78.59       78.19       77.78       77.38    
        77.03       76.69       76.35       76.01       75.69       75.36       75.05       74.74       74.43       74.13    
        73.84       73.56       73.29       73.02       72.77       72.52       72.28       72.06       71.84       71.64    
        71.44       71.25       71.08       70.91       70.75       70.59       70.44       70.29       70.14       70.00    
  37  -1000.0       82.09       82.05       81.99       81.90       81.78       81.63       81.45       81.25       81.01    
        80.75       80.46       80.14       79.79       79.42       79.02       78.62       78.23       77.83       77.44    
        77.09       76.74       76.41       76.07       75.75       75.42       75.11       74.80       74.50       74.20    
        73.91       73.63       73.36       73.09       72.84       72.59       72.35       72.13       71.91       71.70    
        71.50       71.31       71.13       70.95       70.78       70.62       70.46       70.31       70.15       70.00    
  38  -1000.0       82.05       82.01       81.95       81.86       81.75       81.60       81.42       81.22       80.99    
        80.73       80.45       80.14       79.80       79.43       79.04       78.65       78.26       77.88       77.49    
        77.14       76.80       76.46       76.13       75.80       75.48       75.17       74.86       74.56       74.26    
        73.97       73.69       73.42       73.16       72.90       72.66       72.42       72.19       71.97       71.76    
        71.56       71.36       71.17       70.99       70.82       70.65       70.48       70.32       70.16       70.00    
  39  -1000.0       82.01       81.98       81.92       81.83       81.71       81.57       81.39       81.19       80.97    
        80.72       80.44       80.13       79.80       79.44       79.06       78.68       78.30       77.92       77.54    
        77.19       76.85       76.51       76.18       75.86       75.54       75.22       74.91       74.61       74.32    
        74.03       73.75       73.48       73.22       72.96       72.72       72.48       72.25       72.03       71.81    
        71.61       71.41       71.22       71.03       70.85       70.67       70.50       70.33       70.17       70.00    
  40  -1000.0       81.99       81.95       81.89       81.80       81.68       81.54       81.37       81.17       80.95    
        80.70       80.43       80.13       79.80       79.45       79.08       78.70       78.33       77.95       77.58    
        77.24       76.90       76.56       76.23       75.90       75.59       75.27       74.97       74.67       74.37    
        74.09       73.81       73.54       73.28       73.02       72.77       72.53       72.30       72.08       71.86    
        71.65       71.45       71.25       71.06       70.88       70.70       70.52       70.34       70.17       70.00    
  41  -1000.0       81.97       81.93       81.86       81.77       81.65       81.51       81.34       81.15       80.93    
        80.69       80.42       80.12       79.80       79.46       79.09       78.72       78.35       77.98       77.62    
        77.28       76.94       76.60       76.27       75.95       75.63       75.32       75.01       74.71       74.42    
        74.14       73.86       73.59       73.33       73.07       72.82       72.58       72.35       72.12       71.90    
        71.69       71.49       71.29       71.09       70.90       70.72       70.53       70.36       70.18       70.00    
  42  -1000.0     -1000.0       81.91       81.84       81.74       81.62       81.48       81.32       81.13       80.91    
        80.67       80.41       80.12       79.80       79.46       79.10       78.74       78.37       78.01       77.65    
        77.31       76.97       76.64       76.31       75.99       75.67       75.36       75.06       74.76       74.47    
        74.18       73.90       73.63       73.37       73.11       72.86       72.62       72.39       72.16       71.94    
        71.73       71.52       71.32       71.12       70.92       70.73       70.55       70.36       70.18       70.00    
  43  -1000.0     -1000.0     -1000.0       81.81       81.71       81.59       81.45       81.29       81.10       80.89    
        80.66       80.40       80.11       79.80       79.47       79.11       78.75       78.39       78.04       77.68    
        77.34       77.00       76.67       76.34       76.02       75.71       75.40       75.09       74.80       74.50    
        74.22       73.94       73.67       73.41       73.15       72.90       72.66       72.42       72.20       71.97    
        71.76       71.55       71.34       71.14       70.94       70.75       70.56       70.37       70.19       70.00    
  44  -1000.0     -1000.0     -1000.0     -1000.0       81.68       81.56       81.42       81.26       81.08       80.87    
        80.64       80.38       80.10       79.80       79.47       79.12       78.76       78.41       78.05       77.70    
        77.36       77.03       76.70       76.37       76.05       75.74       75.43       75.12       74.83       74.54    
        74.25       73.98       73.71       73.44       73.19       72.94       72.69       72.46       72.22       72.00    
        71.78       71.57       71.36       71.16       70.96       70.76       70.57       70.38       70.19       70.00    
  45  -1000.0     -1000.0     -1000.0     -1000.0     -1000.0       81.53       81.39       81.23       81.05       80.85    
        80.62       80.37       80.10       79.80       79.47       79.12       78.77       78.42       78.07       77.72    
        77.38       77.05       76.72       76.40       76.08       75.76       75.45       75.15       74.86       74.57    
        74.28       74.00       73.73       73.47       73.21       72.96       72.72       72.48       72.25       72.02    
        71.80       71.59       71.38       71.17       70.97       70.77       70.58       70.38       70.19       70.00    
  46  -1000.0     -1000.0     -1000.0     -1000.0     -1000.0     -1000.0       81.35       81.19       81.02       80.82    
        80.60       80.36       80.09       79.79       79.47       79.12       78.78       78.43       78.08       77.74    
        77.40       77.07       76.74       76.42       76.10       75.78       75.48       75.17       74.88       74.59    
        74.30       74.03       73.76       73.49       73.23       72.98       72.74       72.50       72.27       72.04    
        71.82       71.60       71.39       71.19       70.98       70.78       70.58       70.39       70.19       70.00    
  47  -1000.0     -1000.0     -1000.0     -1000.0     -1000.0     -1000.0     -1000.0       81.15       80.98       80.79    
        80.58       80.34       80.08       79.79       79.47       79.13       78.78       78.44       78.09       77.75    
        77.41       77.08       76.75       76.43       76.11       75.80       75.49       75.19       74.89       74.60    
        74.32       74.04       73.77       73.51       73.25       73.00       72.75       72.52       72.28       72.06    
        71.83       71.62       71.40       71.20       70.99       70.79       70.59       70.39       70.20       70.00    
  48  -1000.0     -1000.0     -1000.0     -1000.0     -1000.0     -1000.0     -1000.0     -1000.0       80.94       80.76    
        80.56       80.33       80.07       79.79       79.47       79.13       78.78       78.44       78.10       77.76    
        77.42       77.09       76.76       76.44       76.12       75.81       75.50       75.20       74.90       74.61    
        74.33       74.05       73.78       73.52       73.26       73.01       72.77       72.53       72.29       72.06    
        71.84       71.62       71.41       71.20       71.00       70.79       70.59       70.39       70.20       70.00    
  49  -1000.0     -1000.0     -1000.0     -1000.0     -1000.0     -1000.0     -1000.0     -1000.0     -1000.0       80.73    
        80.55       80.32       80.07       79.78       79.47       79.13       78.79       78.44       78.10       77.76    
        77.43       77.09       76.77       76.44       76.13       75.81       75.51       75.21       74.91       74.62    
        74.34       74.06       73.79       73.53       73.27       73.02       72.77       72.53       72.30       72.07    
        71.85       71.63       71.41       71.20       71.00       70.79       70.59       70.39       70.20       70.00    
  50  -1000.0     -1000.0     -1000.0     -1000.0     -1000.0     -1000.0     -1000.0     -1000.0     -1000.0     -1000.0    
      -1000.0     -1000.0     -1000.0     -1000.0     -1000.0     -1000.0     -1000.0     -1000.0     -1000.0     -1000.0    
      -1000.0     -1000.0     -1000.0     -1000.0     -1000.0     -1000.0     -1000.0     -1000.0     -1000.0     -1000.0    
      -1000.0     -1000.0     -1000.0     -1000.0     -1000.0     -1000.0     -1000.0     -1000.0     -1000.0     -1000.0    
      -1000.0     -1000.0     -1000.0     -1000.0     -1000.0     -1000.0     -1000.0     -1000.0     -1000.0       70.00    

 HEAD WILL BE SAVED ON UNIT   51 AT END OF TIME STEP    1, STRESS PERIOD    1

 DRAWDOWN WILL BE SAVED ON UNIT   52 AT END OF TIME STEP    1, STRESS PERIOD    1
1
  VOLUMETRIC BUDGET FOR ENTIRE MODEL AT END OF TIME STEP    1, STRESS PERIOD   1
  ------------------------------------------------------------------------------

     CUMULATIVE VOLUMES      L**3       RATES FOR THIS TIME STEP      L**3/T
     ------------------                 ------------------------

           IN:                                      IN:
           ---                                      ---
             STORAGE =           0.0000               STORAGE =           0.0000
       CONSTANT HEAD =         637.0284         CONSTANT HEAD =         637.0284
               WELLS =         375.0000                 WELLS =         375.0000
       RIVER LEAKAGE =        6000.0000         RIVER LEAKAGE =        6000.0000
                  ET =           0.0000                    ET =           0.0000
            RECHARGE =        6520.0000              RECHARGE =        6520.0000

            TOTAL IN =       13532.0283              TOTAL IN =       13532.0283

          OUT:                                     OUT:
          ----                                     ----
             STORAGE =           0.0000               STORAGE =           0.0000
       CONSTANT HEAD =        1809.6932         CONSTANT HEAD =        1809.6932
               WELLS =        1500.0000                 WELLS =        1500.0000
       RIVER LEAKAGE =           0.0000         RIVER LEAKAGE =           0.0000
                  ET =       10222.3105                    ET =       10222.3105
            RECHARGE =           0.0000              RECHARGE =           0.0000

           TOTAL OUT =       13532.0039             TOTAL OUT =       13532.0039

            IN - OUT =       2.4414E-02              IN - OUT =       2.4414E-02

 PERCENT DISCREPANCY =           0.00     PERCENT DISCREPANCY =           0.00






         TIME SUMMARY AT END OF TIME STEP    1 IN STRESS PERIOD    1
                    SECONDS     MINUTES      HOURS       DAYS        YEARS
                    -----------------------------------------------------------
   TIME STEP LENGTH  86400.      1440.0      24.000      1.0000     2.73785E-03
 STRESS PERIOD TIME  86400.      1440.0      24.000      1.0000     2.73785E-03
         TOTAL TIME  86400.      1440.0      24.000      1.0000     2.73785E-03
1

 Run end date and time (yyyy/mm/dd hh:mm:ss): 2026/02/25  2:30:48
 Elapsed run time:  9.627 Seconds

