                                  MODFLOW-2005     
      U.S. GEOLOGICAL SURVEY MODULAR FINITE-DIFFERENCE GROUND-WATER FLOW MODEL
                            VERSION 1.12.00 2/3/2017

 LIST FILE: static_ensemble_1133313.list
                         UNIT    2

 OPENING static_ensemble_1133313.dis
 FILE TYPE:DIS   UNIT   11   STATUS:OLD    
 FORMAT:FORMATTED              ACCESS:SEQUENTIAL          

 OPENING static_ensemble_1133313.bas
 FILE TYPE:BAS6   UNIT   13   STATUS:OLD    
 FORMAT:FORMATTED              ACCESS:SEQUENTIAL          

 OPENING static_ensemble_1133313.lpf
 FILE TYPE:LPF   UNIT   15   STATUS:OLD    
 FORMAT:FORMATTED              ACCESS:SEQUENTIAL          

 OPENING static_ensemble_1133313.evt
 FILE TYPE:EVT   UNIT   22   STATUS:OLD    
 FORMAT:FORMATTED              ACCESS:SEQUENTIAL          

 OPENING static_ensemble_1133313.rch
 FILE TYPE:RCH   UNIT   19   STATUS:OLD    
 FORMAT:FORMATTED              ACCESS:SEQUENTIAL          

 OPENING static_ensemble_1133313.riv
 FILE TYPE:RIV   UNIT   18   STATUS:OLD    
 FORMAT:FORMATTED              ACCESS:SEQUENTIAL          

 OPENING static_ensemble_1133313.wel
 FILE TYPE:WEL   UNIT   20   STATUS:OLD    
 FORMAT:FORMATTED              ACCESS:SEQUENTIAL          

 OPENING static_ensemble_1133313.oc
 FILE TYPE:OC   UNIT   14   STATUS:OLD    
 FORMAT:FORMATTED              ACCESS:SEQUENTIAL          

 OPENING static_ensemble_1133313.pcg
 FILE TYPE:PCG   UNIT   27   STATUS:OLD    
 FORMAT:FORMATTED              ACCESS:SEQUENTIAL          

 OPENING static_ensemble_1133313.cbc
 FILE TYPE:DATA(BINARY)   UNIT   53   STATUS:REPLACE
 FORMAT:UNFORMATTED            ACCESS:STREAM              

 OPENING static_ensemble_1133313.hds
 FILE TYPE:DATA(BINARY)   UNIT   51   STATUS:REPLACE
 FORMAT:UNFORMATTED            ACCESS:STREAM              

 OPENING static_ensemble_1133313.ddn
 FILE TYPE:DATA(BINARY)   UNIT   52   STATUS:REPLACE
 FORMAT:UNFORMATTED            ACCESS:STREAM              

 BAS -- BASIC PACKAGE, VERSION 7, 5/2/2005 INPUT READ FROM UNIT   13
 
 MODFLOW was compiled using mixed precision
 Precision of REAL variables:           6
 Precision of DOUBLE PRECISION variables:          15

 DISCRETIZATION INPUT DATA READ FROM UNIT   11
 # DIS package for MODFLOW-2005 generated by Flopy 3.9.5
    3 LAYERS        50 ROWS        50 COLUMNS
    1 STRESS PERIOD(S) IN SIMULATION
 MODEL TIME UNIT IS DAYS
 MODEL LENGTH UNIT IS METERS
  Confining bed flag for each layer:
   0   0   0

                     DELR =   1000.00    

                     DELC =   1000.00    



           TOP ELEVATION OF LAYER 1
 READING ON UNIT   11 WITH FORMAT: (50E15.6)           



             MODEL LAYER BOTTOM EL. FOR LAYER   1
 READING ON UNIT   11 WITH FORMAT: (50E15.6)           



             MODEL LAYER BOTTOM EL. FOR LAYER   2
 READING ON UNIT   11 WITH FORMAT: (50E15.6)           



             MODEL LAYER BOTTOM EL. FOR LAYER   3
 READING ON UNIT   11 WITH FORMAT: (50E15.6)           


 STRESS PERIOD     LENGTH       TIME STEPS     MULTIPLIER FOR DELT    SS FLAG
 ----------------------------------------------------------------------------
        1         1.000000          1                    1.000         SS

 STEADY-STATE SIMULATION



 
 # BAS6 package for MODFLOW-2005 generated by Flopy 3.9.5                        
 THE FREE FORMAT OPTION HAS BEEN SELECTED



                     BOUNDARY ARRAY FOR LAYER   1
 READING ON UNIT   13 WITH FORMAT: (50I10)             



                     BOUNDARY ARRAY FOR LAYER   2
 READING ON UNIT   13 WITH FORMAT: (50I10)             



                     BOUNDARY ARRAY FOR LAYER   3
 READING ON UNIT   13 WITH FORMAT: (50I10)             

 AQUIFER HEAD WILL BE SET TO  -999.99     AT ALL NO-FLOW NODES (IBOUND=0).



                       INITIAL HEAD FOR LAYER   1
 READING ON UNIT   13 WITH FORMAT: (50E15.6)           



                       INITIAL HEAD FOR LAYER   2
 READING ON UNIT   13 WITH FORMAT: (50E15.6)           



                       INITIAL HEAD FOR LAYER   3
 READING ON UNIT   13 WITH FORMAT: (50E15.6)           
 # OC package for MODFLOW-2005 generated by Flopy 3.9.5

 OUTPUT CONTROL IS SPECIFIED ONLY AT TIME STEPS FOR WHICH OUTPUT IS DESIRED
 COMPACT CELL-BY-CELL BUDGET FILES WILL BE WRITTEN
 AUXILIARY DATA WILL BE SAVED IN CELL-BY-CELL BUDGET FILES
 HEAD PRINT FORMAT CODE IS   0    DRAWDOWN PRINT FORMAT CODE IS   0
 HEADS WILL BE SAVED ON UNIT   51    DRAWDOWNS WILL BE SAVED ON UNIT   52

 LPF -- LAYER-PROPERTY FLOW PACKAGE, VERSION 7, 5/2/2005
         INPUT READ FROM UNIT   15
 # LPF package for MODFLOW-2005 generated by Flopy 3.9.5
 CELL-BY-CELL FLOWS WILL BE SAVED ON UNIT   53
 HEAD AT CELLS THAT CONVERT TO DRY= -1.00000E+30
 No named parameters
 STORAGECOEFFICIENT OPTION:
 Read storage coefficient rather than specific storage

   LAYER FLAGS:
 LAYER       LAYTYP        LAYAVG         CHANI        LAYVKA        LAYWET
 ---------------------------------------------------------------------------
    1             1             0     1.000E+00             0             0
    2             1             0     1.000E+00             0             0
    3             1             0     1.000E+00             0             0

   INTERPRETATION OF LAYER FLAGS:
                        INTERBLOCK     HORIZONTAL    DATA IN
         LAYER TYPE   TRANSMISSIVITY   ANISOTROPY   ARRAY VKA   WETTABILITY
 LAYER      (LAYTYP)      (LAYAVG)       (CHANI)      (LAYVKA)      (LAYWET)
 ---------------------------------------------------------------------------
    1   CONVERTIBLE      HARMONIC     1.000E+00    VERTICAL K  NON-WETTABLE
    2   CONVERTIBLE      HARMONIC     1.000E+00    VERTICAL K  NON-WETTABLE
    3   CONVERTIBLE      HARMONIC     1.000E+00    VERTICAL K  NON-WETTABLE

 WETTING CAPABILITY IS NOT ACTIVE IN ANY LAYER



              HYD. COND. ALONG ROWS FOR LAYER   1
 READING ON UNIT   15 WITH FORMAT: (50E15.6)           



                VERTICAL HYD. COND. FOR LAYER   1
 READING ON UNIT   15 WITH FORMAT: (50E15.6)           



              HYD. COND. ALONG ROWS FOR LAYER   2
 READING ON UNIT   15 WITH FORMAT: (50E15.6)           



                VERTICAL HYD. COND. FOR LAYER   2
 READING ON UNIT   15 WITH FORMAT: (50E15.6)           



              HYD. COND. ALONG ROWS FOR LAYER   3
 READING ON UNIT   15 WITH FORMAT: (50E15.6)           



                VERTICAL HYD. COND. FOR LAYER   3
 READING ON UNIT   15 WITH FORMAT: (50E15.6)           

 WEL -- WELL PACKAGE, VERSION 7, 5/2/2005 INPUT READ FROM UNIT   20
 # WEL package for MODFLOW-2005 generated by Flopy 3.9.5
 No named parameters
 MAXIMUM OF      3 ACTIVE WELLS AT ONE TIME


     0 Well parameters

 RIV -- RIVER PACKAGE, VERSION 7, 5/2/2005 INPUT READ FROM UNIT   18
 # RIV package for MODFLOW-2005 generated by Flopy 3.9.5
 No named parameters
 MAXIMUM OF     49 ACTIVE RIVER REACHES AT ONE TIME
 CELL-BY-CELL FLOWS WILL BE SAVED ON UNIT   53


     0 River parameters

 EVT -- EVAPOTRANSPIRATION PACKAGE, VERSION 7, 5/2/2005
         INPUT READ FROM UNIT   22
 # EVT package for MODFLOW-2005 generated by Flopy 3.9.5
 No named parameters
 OPTION 3 -- EVAPOTRANSPIRATION FROM HIGHEST ACTIVE NODE IN EACH VERTICAL COLUMN
 CELL-BY-CELL FLOWS WILL BE SAVED ON UNIT   53


     0 Evapotranspiration parameters

 RCH -- RECHARGE PACKAGE, VERSION 7, 5/2/2005 INPUT READ FROM UNIT   19
 # RCH package for MODFLOW-2005 generated by Flopy 3.9.5
 No named parameters
 OPTION 3 -- RECHARGE TO HIGHEST ACTIVE NODE IN EACH VERTICAL COLUMN
 CELL-BY-CELL FLOWS WILL BE SAVED ON UNIT   53


     0 Recharge parameters

 PCG -- CONJUGATE-GRADIENT SOLUTION PACKAGE, VERSION 7, 5/2/2005
 # PCG package for MODFLOW-2005 generated by Flopy 3.9.5
 MAXIMUM OF   5000 CALLS OF SOLUTION ROUTINE
 MAXIMUM OF    500 INTERNAL ITERATIONS PER CALL TO SOLUTION ROUTINE
 MATRIX PRECONDITIONING TYPE :    1



                                    SOLUTION BY THE CONJUGATE-GRADIENT METHOD
                                   -------------------------------------------
                    MAXIMUM NUMBER OF CALLS TO PCG ROUTINE =     5000
                        MAXIMUM ITERATIONS PER CALL TO PCG =      500
                               MATRIX PRECONDITIONING TYPE =        1
        RELAXATION FACTOR (ONLY USED WITH PRECOND. TYPE 1) =    0.97000E+00
 PARAMETER OF POLYNOMIAL PRECOND. = 2 (2) OR IS CALCULATED :        0
                         HEAD CHANGE CRITERION FOR CLOSURE =    0.10000E-04
                     RESIDUAL CHANGE CRITERION FOR CLOSURE =    0.10000E-04
            PCG HEAD AND RESIDUAL CHANGE PRINTOUT INTERVAL =      999
     PRINTING FROM SOLVER IS LIMITED(1) OR SUPPRESSED (>1) =        3
                            STEADY-STATE DAMPING PARAMETER =    0.10000E-01
                               TRANSIENT DAMPING PARAMETER =    0.10000E-01
1
                            STRESS PERIOD NO.    1, LENGTH =   1.000000    
                            -----------------------------------------------

                              NUMBER OF TIME STEPS =     1

                               MULTIPLIER FOR DELT =     1.000

                            INITIAL TIME STEP SIZE =   1.000000    

 WELL NO.  LAYER   ROW   COL   STRESS RATE         
 --------------------------------------------------
      1      3     22     39      -1500.    
      2      1     13     15       0.000    
      3      1     25     26       375.0    

      3 WELLS

 REACH NO.  LAYER   ROW   COL     STAGE      CONDUCTANCE     BOTTOM EL.         
 -------------------------------------------------------------------------------
      1      1     25      2       100.5           5000.           98.00    
      2      1     25      3       99.50           5000.           97.00    
      3      1     25      4       98.50           5000.           96.00    
      4      1     25      5       97.50           5000.           95.00    
      5      1     25      6       96.50           5000.           94.00    
      6      1     25      7       95.50           5000.           93.00    
      7      1     25      8       94.50           5000.           92.00    
      8      1     25      9       93.50           5000.           91.00    
      9      1     25     10       92.50           5000.           90.00    
     10      1     25     11       91.50           5000.           89.00    
     11      1     25     12       90.50           5000.           88.00    
     12      1     25     13       89.50           5000.           87.00    
     13      1     25     14       88.50           5000.           86.00    
     14      1     25     15       87.50           5000.           85.00    
     15      1     25     16       86.50           5000.           84.00    
     16      1     25     17       85.50           5000.           83.00    
     17      1     25     18       84.50           5000.           82.00    
     18      1     25     19       83.50           5000.           81.00    
     19      1     25     20       82.50           5000.           80.00    
     20      1     25     21       81.50           5000.           79.00    
     21      1     25     22       80.50           5000.           78.00    
     22      1     25     23       79.50           5000.           77.00    
     23      1     25     24       78.50           5000.           76.00    
     24      1     25     25       77.50           5000.           75.00    
     25      1     25     26       77.40           5000.           74.90    
     26      1     25     27       77.30           5000.           74.80    
     27      1     25     28       77.20           5000.           74.70    
     28      1     25     29       77.10           5000.           74.60    
     29      1     25     30       77.00           5000.           74.50    
     30      1     25     31       76.90           5000.           74.40    
     31      1     25     32       76.80           5000.           74.30    
     32      1     25     33       76.70           5000.           74.20    
     33      1     25     34       76.60           5000.           74.10    
     34      1     25     35       76.50           5000.           74.00    
     35      1     25     36       76.40           5000.           73.90    
     36      1     25     37       76.30           5000.           73.80    
     37      1     25     38       76.20           5000.           73.70    
     38      1     25     39       76.10           5000.           73.60    
     39      1     25     40       76.00           5000.           73.50    
     40      1     25     41       75.90           5000.           73.40    
     41      1     25     42       75.80           5000.           73.30    
     42      1     25     43       75.70           5000.           73.20    
     43      1     25     44       75.60           5000.           73.10    
     44      1     25     45       75.50           5000.           73.00    
     45      1     25     46       75.40           5000.           72.90    
     46      1     25     47       75.30           5000.           72.80    
     47      1     25     48       75.20           5000.           72.70    
     48      1     25     49       75.10           5000.           72.60    
     49      1     25     50       75.00           5000.           72.50    

     49 RIVER REACHES



                         ET SURFACE
 READING ON UNIT   22 WITH FORMAT: (50E15.6)           



            EVAPOTRANSPIRATION RATE
 READING ON UNIT   22 WITH FORMAT: (50E15.6)           

         EXTINCTION DEPTH =   10.0000    



                           RECHARGE
 READING ON UNIT   19 WITH FORMAT: (50E15.6)           
 
 SOLVING FOR HEAD 

 OUTPUT CONTROL FOR STRESS PERIOD    1   TIME STEP    1
    SAVE HEAD FOR ALL LAYERS
    SAVE DRAWDOWN FOR ALL LAYERS
    SAVE BUDGET
    PRINT HEAD FOR ALL LAYERS
    PRINT BUDGET
 UBDSV2 SAVING "   CONSTANT HEAD" ON UNIT  53 AT TIME STEP  1, STRESS PERIOD   1
 UBDSV1 SAVING "FLOW RIGHT FACE " ON UNIT  53 AT TIME STEP  1, STRESS PERIOD   1
 UBDSV1 SAVING "FLOW FRONT FACE " ON UNIT  53 AT TIME STEP  1, STRESS PERIOD   1
 UBDSV1 SAVING "FLOW LOWER FACE " ON UNIT  53 AT TIME STEP  1, STRESS PERIOD   1
 UBDSV4 SAVING "   RIVER LEAKAGE" ON UNIT  53 AT TIME STEP  1, STRESS PERIOD   1
 UBDSV3 SAVING "              ET" ON UNIT  53 AT TIME STEP  1, STRESS PERIOD   1
 UBDSV3 SAVING "        RECHARGE" ON UNIT  53 AT TIME STEP  1, STRESS PERIOD   1
1
              HEAD IN LAYER   1 AT END OF TIME STEP   1 IN STRESS PERIOD    1
  ---------------------------------------------------------------------------

            1           2           3           4           5           6           7           8           9          10
           11          12          13          14          15          16          17          18          19          20
           21          22          23          24          25          26          27          28          29          30
           31          32          33          34          35          36          37          38          39          40
           41          42          43          44          45          46          47          48          49          50
 ........................................................................................................................
   1  -1000.0     -1000.0     -1000.0     -1000.0     -1000.0     -1000.0     -1000.0     -1000.0     -1000.0     -1000.0    
      -1000.0     -1000.0     -1000.0     -1000.0     -1000.0     -1000.0     -1000.0     -1000.0     -1000.0     -1000.0    
      -1000.0     -1000.0     -1000.0     -1000.0     -1000.0     -1000.0     -1000.0     -1000.0     -1000.0     -1000.0    
      -1000.0     -1000.0     -1000.0     -1000.0     -1000.0     -1000.0     -1000.0     -1000.0     -1000.0     -1000.0    
      -1000.0     -1000.0     -1000.0     -1000.0     -1000.0     -1000.0     -1000.0     -1000.0     -1000.0       70.00    
   2  -1000.0     -1000.0     -1000.0     -1000.0     -1000.0       101.1       100.9       100.4       99.91       99.27    
        98.73       98.08       97.33       96.49       95.55       94.52       93.50       92.50       91.52       90.55    
        89.62       88.70       87.79       86.91       86.04       85.19       84.36       83.55       82.77       82.01    
        81.28       80.57       79.88       79.21       78.56       77.93       77.31       76.71       76.13       75.55    
        74.98       74.43       73.87       73.32       72.78       72.23       71.68       71.13       70.57       70.00    
   3  -1000.0     -1000.0     -1000.0     -1000.0       101.5       101.2       100.9       100.4       99.84       99.32    
        98.74       98.07       97.31       96.47       95.53       94.50       93.48       92.48       91.49       90.52    
        89.59       88.67       87.76       86.87       86.00       85.15       84.32       83.51       82.73       81.97    
        81.24       80.53       79.84       79.18       78.53       77.90       77.29       76.69       76.11       75.53    
        74.97       74.41       73.86       73.31       72.77       72.22       71.68       71.13       70.57       70.00    
   4  -1000.0     -1000.0     -1000.0       101.7       101.5       101.2       100.8       100.3       99.86       99.33    
        98.73       98.05       97.28       96.43       95.48       94.45       93.43       92.42       91.44       90.46    
        89.53       88.60       87.69       86.80       85.92       85.07       84.24       83.43       82.65       81.90    
        81.17       80.46       79.78       79.12       78.47       77.85       77.24       76.64       76.06       75.49    
        74.93       74.38       73.83       73.29       72.75       72.21       71.67       71.12       70.56       70.00    
   5  -1000.0     -1000.0       101.9       101.8       101.5       101.2       100.7       100.3       99.86       99.31    
        98.70       98.00       97.22       96.36       95.41       94.37       93.35       92.34       91.35       90.38    
        89.44       88.50       87.59       86.69       85.81       84.95       84.12       83.31       82.53       81.78    
        81.06       80.36       79.68       79.02       78.38       77.76       77.16       76.57       76.00       75.44    
        74.88       74.33       73.79       73.26       72.72       72.19       71.65       71.11       70.56       70.00    
   6  -1000.0       102.0       101.9       101.7       101.4       101.1       100.7       100.3       99.82       99.26    
        98.63       97.93       97.14       96.27       95.32       94.27       93.25       92.23       91.24       90.26    
        89.31       88.37       87.45       86.54       85.65       84.79       83.95       83.15       82.37       81.62    
        80.91       80.21       79.54       78.89       78.26       77.65       77.06       76.48       75.91       75.36    
        74.81       74.27       73.74       73.21       72.68       72.16       71.63       71.09       70.55       70.00    
   7  -1000.0       101.9       101.8       101.6       101.3       101.0       100.7       100.2       99.75       99.18    
        98.54       97.83       97.03       96.16       95.20       94.15       93.11       92.10       91.10       90.12    
        89.16       88.21       87.27       86.35       85.45       84.57       83.74       82.93       82.16       81.42    
        80.71       80.03       79.37       78.73       78.11       77.52       76.93       76.36       75.81       75.26    
        74.73       74.20       73.68       73.16       72.64       72.12       71.60       71.07       70.54       70.00    
   8  -1000.0       101.8       101.7       101.5       101.2       100.9       100.6       100.1       99.64       99.07    
        98.42       97.70       96.90       96.01       95.04       93.99       92.95       91.93       90.93       89.95    
        88.97       88.01       87.05       86.12       85.20       84.30       83.47       82.67       81.91       81.18    
        80.48       79.81       79.16       78.54       77.93       77.35       76.78       76.22       75.68       75.15    
        74.63       74.11       73.60       73.09       72.58       72.07       71.56       71.05       70.53       70.00    
   9  -1000.0       101.6       101.5       101.3       101.1       100.8       100.5       100.0       99.51       98.93    
        98.27       97.54       96.73       95.84       94.86       93.80       92.76       91.74       90.73       89.74    
        88.75       87.77       86.80       85.84       84.90       83.98       83.14       82.35       81.60       80.88    
        80.20       79.55       78.92       78.31       77.72       77.15       76.60       76.06       75.53       75.02    
        74.51       74.01       73.51       73.01       72.52       72.02       71.53       71.02       70.52       70.00    
  10  -1000.0       101.4       101.3       101.2       101.0       100.7       100.3       99.86       99.35       98.76    
        98.09       97.35       96.53       95.64       94.65       93.59       92.54       91.51       90.50       89.51    
        88.50       87.50       86.51       85.53       84.56       83.60       82.74       81.96       81.23       80.54    
        79.88       79.24       78.63       78.05       77.48       76.93       76.40       75.88       75.37       74.87    
        74.37       73.89       73.41       72.93       72.45       71.97       71.48       71.00       70.50       70.00    
  11  -1000.0       101.3       101.2       101.0       100.8       100.5       100.1       99.67       99.15       98.55    
        97.88       97.13       96.31       95.40       94.41       93.34       92.29       91.25       90.24       89.24    
        88.22       87.20       86.19       85.18       84.17       83.17       82.30       81.52       80.81       80.14    
        79.50       78.89       78.31       77.75       77.20       76.68       76.17       75.67       75.18       74.70    
        74.23       73.76       73.29       72.83       72.37       71.90       71.44       70.96       70.49       70.00    
  12  -1000.0       101.1       101.0       100.8       100.6       100.3       99.92       99.46       98.93       98.32    
        97.64       96.88       96.05       95.13       94.14       93.06       92.00       90.96       89.95       88.95    
        87.90       86.86       85.83       84.79       83.75       82.71       81.81       81.03       80.33       79.68    
        79.08       78.50       77.95       77.41       76.90       76.40       75.91       75.44       74.97       74.51    
        74.06       73.61       73.17       72.73       72.28       71.83       71.38       70.93       70.47       70.00    
  13  -1000.0       100.9       100.8       100.6       100.4       100.1       99.68       99.21       98.67       98.05    
        97.36       96.60       95.75       94.83       93.83       92.74       91.68       90.64       89.62       88.62    
        87.56       86.50       85.43       84.37       83.29       82.21       81.29       80.50       79.80       79.18    
        78.60       78.06       77.54       77.04       76.56       76.09       75.63       75.18       74.75       74.31    
        73.89       73.46       73.04       72.62       72.19       71.76       71.33       70.89       70.45       70.00    
  14  -1000.0       100.6       100.6       100.4       100.1       99.82       99.42       98.94       98.38       97.76    
        97.05       96.28       95.42       94.49       93.48       92.39       91.33       90.28       89.26       88.26    
        87.18       86.10       85.01       83.91       82.81       81.68       80.73       79.93       79.24       78.63    
        78.08       77.58       77.10       76.63       76.19       75.75       75.33       74.91       74.50       74.10    
        73.70       73.30       72.90       72.50       72.10       71.69       71.28       70.86       70.43       70.00    
  15  -1000.0       100.4       100.3       100.1       99.88       99.55       99.13       98.64       98.07       97.42    
        96.71       95.92       95.05       94.12       93.10       92.01       90.94       89.89       88.87       87.87    
        86.77       85.66       84.55       83.43       82.29       81.12       80.15       79.34       78.65       78.06    
        77.53       77.05       76.61       76.19       75.78       75.39       75.00       74.62       74.24       73.87    
        73.49       73.12       72.75       72.38       72.00       71.61       71.22       70.82       70.41       70.00    
  16  -1000.0       100.1       100.1       99.87       99.60       99.25       98.81       98.30       97.72       97.06    
        96.32       95.52       94.65       93.70       92.68       91.58       90.50       89.46       88.44       87.45    
        86.32       85.20       84.06       82.92       81.75       80.55       79.56       78.74       78.06       77.47    
        76.97       76.51       76.10       75.72       75.35       75.00       74.65       74.30       73.96       73.62    
        73.28       72.94       72.60       72.25       71.90       71.54       71.16       70.78       70.40       70.00    
  17  -1000.0       99.88       99.78       99.59       99.30       98.93       98.47       97.94       97.33       96.65    
        95.90       95.08       94.20       93.24       92.21       91.10       90.03       88.99       87.97       86.99    
        85.84       84.70       83.54       82.38       81.19       79.96       78.96       78.14       77.46       76.89    
        76.41       75.98       75.59       75.24       74.90       74.59       74.28       73.97       73.67       73.37    
        73.06       72.76       72.45       72.13       71.80       71.46       71.11       70.75       70.38       70.00    
  18  -1000.0       99.61       99.50       99.29       98.98       98.58       98.10       97.54       96.91       96.20    
        95.43       94.60       93.70       92.73       91.69       90.59       89.51       88.47       87.47       86.49    
        85.32       84.15       82.99       81.81       80.61       79.36       78.36       77.55       76.89       76.34    
        75.88       75.47       75.11       74.79       74.48       74.19       73.91       73.64       73.37       73.11    
        72.84       72.57       72.29       72.01       71.71       71.39       71.07       70.72       70.37       70.00    
  19  -1000.0       99.35       99.23       98.99       98.66       98.22       97.70       97.11       96.44       95.71    
        94.92       94.06       93.15       92.17       91.13       90.01       88.94       87.91       86.91       85.95    
        84.75       83.57       82.39       81.21       80.02       78.77       77.78       77.00       76.37       75.85    
        75.41       75.03       74.70       74.39       74.11       73.85       73.60       73.35       73.11       72.87    
        72.64       72.39       72.15       71.89       71.62       71.33       71.03       70.70       70.36       70.00    
  20  -1000.0       99.10       98.96       98.70       98.32       97.84       97.27       96.64       95.93       95.17    
        94.35       93.47       92.54       91.55       90.50       89.39       88.32       87.29       86.31       85.37    
        84.13       82.91       81.73       80.56       79.40       78.19       77.25       76.51       75.92       75.44    
        75.03       74.69       74.38       74.10       73.85       73.61       73.38       73.16       72.94       72.73    
        72.51       72.30       72.08       71.84       71.59       71.32       71.02       70.70       70.35       70.00    
  21  -1000.0       98.90       98.73       98.41       97.97       97.43       96.81       96.12       95.37       94.57    
        93.71       92.81       91.86       90.86       89.81       88.70       87.63       86.62       85.65       84.73    
        83.42       82.17       80.99       79.85       78.75       77.64       76.79       76.13       75.60       75.17    
        74.80       74.49       74.22       73.97       73.74       73.53       73.32       73.12       72.93       72.73    
        72.54       72.35       72.14       71.93       71.70       71.44       71.14       70.79       70.39       70.00    
  22  -1000.0       98.75       98.54       98.14       97.62       97.00       96.31       95.55       94.75       93.90    
        93.01       92.08       91.11       90.11       89.05       87.94       86.88       85.88       84.92       84.03    
        82.59       81.30       80.12       79.03       78.04       77.16       76.46       75.91       75.46       75.09    
        74.78       74.51       74.28       74.06       73.86       73.67       73.48       73.31       73.13       72.96    
        72.79       72.62       72.44       72.24       72.03       71.78       71.47       71.07       70.57       70.00    
  23  -1000.0       98.85       98.55       98.05       97.42       96.70       95.92       95.10       94.23       93.34    
        92.41       91.46       90.48       89.47       88.42       87.32       86.27       85.27       84.33       83.46    
        81.99       80.71       79.56       78.52       77.62       76.91       76.36       75.93       75.58       75.29    
        75.04       74.82       74.63       74.45       74.27       74.11       73.95       73.80       73.65       73.50    
        73.35       73.20       73.04       72.87       72.68       72.45       72.15       71.72       71.03       70.00    
  24  -1000.0       99.27       98.81       98.15       97.37       96.54       95.66       94.76       93.83       92.89    
        91.93       90.95       89.96       88.95       87.92       86.84       85.81       84.81       83.87       83.01    
        81.61       80.41       79.31       78.32       77.46       76.96       76.58       76.30       76.06       75.86    
        75.68       75.52       75.36       75.22       75.08       74.95       74.82       74.69       74.56       74.43    
        74.31       74.18       74.05       73.91       73.76       73.58       73.34       72.95       72.13       70.00    
  25  -1000.0       100.2       99.37       98.43       97.47       96.49       95.51       94.53       93.54       92.55    
        91.56       90.56       89.56       88.56       87.55       86.53       85.53       84.53       83.53       82.59    
        81.49       80.47       79.46       78.47       77.50       77.41       77.23       77.12       77.01       76.90    
        76.80       76.70       76.59       76.49       76.39       76.29       76.19       76.08       75.98       75.88    
        75.78       75.68       75.58       75.48       75.37       75.27       75.16       75.05       74.80       70.00    
  26  -1000.0       99.19       98.74       98.08       97.31       96.48       95.61       94.71       93.79       92.85    
        91.89       90.92       89.93       88.91       87.87       86.79       85.75       84.75       83.80       82.94    
        81.47       80.23       79.10       78.07       77.18       76.65       76.24       75.94       75.69       75.47    
        75.29       75.12       74.97       74.83       74.69       74.56       74.43       74.30       74.18       74.06    
        73.94       73.81       73.69       73.56       73.42       73.27       73.06       72.71       71.97       70.00    
  27  -1000.0       98.72       98.43       97.94       97.31       96.61       95.84       95.02       94.16       93.27    
        92.35       91.40       90.41       89.40       88.34       87.23       86.17       85.16       84.21       83.33    
        81.75       80.39       79.17       78.07       77.11       76.35       75.76       75.29       74.91       74.61    
        74.35       74.13       73.93       73.74       73.57       73.41       73.26       73.11       72.97       72.83    
        72.69       72.55       72.40       72.25       72.09       71.90       71.66       71.32       70.78       70.00    
  28  -1000.0       98.62       98.40       98.02       97.50       96.89       96.20       95.46       94.66       93.81    
        92.93       92.00       91.03       90.01       88.95       87.83       86.76       85.74       84.77       83.85    
        82.29       80.91       79.65       78.48       77.40       76.44       75.67       75.06       74.58       74.19    
        73.86       73.58       73.34       73.12       72.93       72.74       72.57       72.40       72.23       72.08    
        71.92       71.76       71.60       71.44       71.26       71.07       70.84       70.58       70.27       70.00    
  29  -1000.0       98.78       98.62       98.30       97.87       97.34       96.72       96.04       95.29       94.49    
        93.64       92.74       91.78       90.78       89.71       88.59       87.51       86.47       85.49       84.54    
        83.13       81.79       80.51       79.28       78.07       76.82       75.88       75.15       74.57       74.10    
        73.72       73.40       73.12       72.87       72.64       72.44       72.24       72.06       71.88       71.70    
        71.53       71.36       71.18       71.01       70.83       70.64       70.44       70.24       70.06       70.00    
  30  -1000.0       99.01       98.87       98.61       98.23       97.76       97.20       96.56       95.86       95.10    
        94.28       93.40       92.46       91.46       90.40       89.28       88.19       87.15       86.14       85.18    
        83.84       82.53       81.25       79.97       78.68       77.31       76.26       75.44       74.79       74.27    
        73.84       73.48       73.17       72.89       72.64       72.42       72.20       72.00       71.80       71.61    
        71.42       71.24       71.05       70.87       70.68       70.49       70.30       70.14       70.02       70.00    
  31  -1000.0       99.27       99.16       98.92       98.59       98.16       97.64       97.05       96.38       95.65    
        94.86       94.00       93.07       92.09       91.03       89.90       88.81       87.76       86.74       85.76    
        84.47       83.18       81.90       80.60       79.27       77.86       76.75       75.87       75.18       74.61    
        74.15       73.75       73.42       73.12       72.85       72.60       72.37       72.15       71.93       71.73    
        71.52       71.32       71.12       70.92       70.72       70.53       70.34       70.17       70.05       70.00    
  32  -1000.0       99.56       99.45       99.24       98.93       98.53       98.05       97.49       96.86       96.15    
        95.38       94.54       93.63       92.65       91.60       90.48       89.38       88.32       87.29       86.29    
        85.03       83.77       82.49       81.20       79.85       78.43       77.30       76.40       75.67       75.08    
        74.58       74.17       73.80       73.49       73.20       72.93       72.68       72.43       72.20       71.97    
        71.75       71.53       71.31       71.09       70.88       70.67       70.47       70.28       70.12       70.00    
  33  -1000.0       99.84       99.74       99.55       99.27       98.89       98.44       97.90       97.29       96.61    
        95.85       95.03       94.13       93.16       92.12       91.00       89.91       88.84       87.80       86.79    
        85.55       84.31       83.05       81.76       80.43       79.02       77.89       76.97       76.23       75.62    
        75.11       74.67       74.29       73.95       73.64       73.35       73.07       72.81       72.55       72.30    
        72.05       71.81       71.57       71.32       71.09       70.85       70.62       70.40       70.19       70.00    
  34  -1000.0       100.1       100.0       99.85       99.58       99.23       98.79       98.28       97.69       97.02    
        96.29       95.48       94.59       93.63       92.59       91.48       90.38       89.32       88.27       87.25    
        86.04       84.81       83.57       82.30       80.99       79.61       78.50       77.58       76.83       76.21    
        75.68       75.23       74.83       74.46       74.13       73.82       73.52       73.22       72.94       72.66    
        72.38       72.10       71.83       71.55       71.28       71.01       70.75       70.49       70.24       70.00    
  35  -1000.0       100.4       100.3       100.1       99.88       99.54       99.12       98.63       98.05       97.40    
        96.68       95.88       95.01       94.06       93.03       91.91       90.82       89.76       88.71       87.68    
        86.49       85.29       84.07       82.82       81.54       80.20       79.11       78.21       77.46       76.82    
        76.28       75.81       75.39       75.00       74.64       74.30       73.97       73.64       73.32       73.00    
        72.69       72.38       72.07       71.76       71.46       71.16       70.87       70.58       70.29       70.00    
  36  -1000.0       100.7       100.6       100.4       100.2       99.84       99.43       98.95       98.39       97.75    
        97.04       96.25       95.39       94.44       93.42       92.31       91.22       90.16       89.11       88.08    
        86.91       85.73       84.54       83.32       82.07       80.78       79.71       78.83       78.08       77.45    
        76.89       76.40       75.96       75.54       75.15       74.77       74.40       74.03       73.68       73.32    
        72.98       72.63       72.30       71.96       71.63       71.30       70.97       70.65       70.32       70.00    
  37  -1000.0       100.9       100.8       100.7       100.4       100.1       99.71       99.24       98.69       98.06    
        97.36       96.58       95.73       94.79       93.78       92.67       91.59       90.53       89.48       88.45    
        87.30       86.15       84.98       83.80       82.59       81.35       80.31       79.44       78.70       78.06    
        77.49       76.98       76.51       76.06       75.62       75.20       74.79       74.39       74.00       73.62    
        73.24       72.87       72.50       72.14       71.78       71.42       71.07       70.71       70.36       70.00    
  38  -1000.0       101.1       101.0       100.9       100.7       100.3       99.96       99.50       98.96       98.34    
        97.65       96.89       96.04       95.11       94.10       93.00       91.92       90.86       89.82       88.79    
        87.67       86.54       85.40       84.25       83.08       81.89       80.88       80.03       79.29       78.65    
        78.06       77.53       77.02       76.53       76.06       75.60       75.16       74.73       74.31       73.89    
        73.49       73.09       72.69       72.30       71.92       71.54       71.15       70.77       70.39       70.00    
  39  -1000.0       101.3       101.3       101.1       100.9       100.6       100.2       99.73       99.20       98.60    
        97.91       97.15       96.31       95.39       94.39       93.30       92.22       91.17       90.13       89.10    
        88.00       86.90       85.79       84.67       83.55       82.40       81.43       80.59       79.86       79.20    
        78.60       78.03       77.48       76.96       76.45       75.96       75.49       75.03       74.58       74.14    
        73.71       73.29       72.87       72.46       72.05       71.64       71.23       70.82       70.41       70.00    
  40  -1000.0       101.5       101.4       101.3       101.1       100.8       100.4       99.94       99.42       98.82    
        98.14       97.39       96.56       95.65       94.65       93.56       92.49       91.44       90.41       89.39    
        88.31       87.23       86.15       85.07       83.98       82.89       81.95       81.12       80.39       79.71    
        79.08       78.48       77.90       77.34       76.81       76.29       75.79       75.31       74.83       74.37    
        73.91       73.47       73.03       72.59       72.16       71.73       71.30       70.87       70.44       70.00    
  41  -1000.0       101.7       101.6       101.4       101.2       100.9       100.6       100.1       99.60       99.01    
        98.34       97.60       96.77       95.87       94.88       93.80       92.73       91.69       90.66       89.64    
        88.59       87.53       86.48       85.43       84.38       83.34       82.42       81.61       80.86       80.17    
        79.51       78.87       78.27       77.69       77.13       76.59       76.06       75.55       75.06       74.57    
        74.10       73.63       73.17       72.72       72.26       71.81       71.37       70.91       70.46       70.00    
  42  -1000.0       101.9       101.7       101.6       101.4       101.1       100.7       100.3       99.76       99.17    
        98.51       97.78       96.96       96.06       95.07       94.00       92.94       91.90       90.88       89.87    
        88.83       87.80       86.77       85.76       84.74       83.74       82.85       82.04       81.28       80.56    
        79.88       79.22       78.59       77.99       77.41       76.84       76.30       75.77       75.26       74.75    
        74.26       73.77       73.30       72.82       72.36       71.89       71.42       70.95       70.48       70.00    
  43  -1000.0       102.0       101.9       101.7       101.5       101.2       100.8       100.4       99.88       99.31    
        98.65       97.93       97.12       96.22       95.24       94.18       93.13       92.09       91.07       90.07    
        89.05       88.04       87.04       86.04       85.06       84.10       83.23       82.41       81.64       80.90    
        80.19       79.52       78.87       78.25       77.65       77.07       76.51       75.96       75.43       74.91    
        74.40       73.90       73.41       72.92       72.44       71.95       71.47       70.99       70.50       70.00    
  44  -1000.0       102.2       102.1       101.9       101.5       101.3       100.9       100.5       99.98       99.41    
        98.77       98.05       97.24       96.36       95.39       94.33       93.28       92.25       91.24       90.24    
        89.24       88.24       87.26       86.29       85.34       84.41       83.54       82.72       81.93       81.18    
        80.46       79.77       79.11       78.47       77.86       77.26       76.68       76.12       75.58       75.04    
        74.52       74.01       73.50       73.00       72.50       72.01       71.51       71.01       70.51       70.00    
  45  -1000.0       102.3       102.2       102.0       101.7       101.3       100.9       100.5       100.0       99.49    
        98.85       98.14       97.35       96.47       95.50       94.45       93.41       92.38       91.37       90.38    
        89.39       88.41       87.45       86.49       85.56       84.66       83.79       82.96       82.17       81.41    
        80.68       79.98       79.31       78.66       78.03       77.42       76.83       76.26       75.70       75.16    
        74.62       74.10       73.58       73.07       72.56       72.05       71.55       71.04       70.52       70.00    
  46  -1000.0     -1000.0       102.2       102.0       101.7       101.4       101.0       100.6       100.1       99.53    
        98.91       98.21       97.42       96.55       95.59       94.54       93.51       92.49       91.48       90.49    
        89.51       88.55       87.59       86.66       85.74       84.85       83.98       83.16       82.36       81.59    
        80.85       80.14       79.46       78.80       78.16       77.55       76.95       76.37       75.80       75.25    
        74.70       74.17       73.64       73.12       72.61       72.09       71.58       71.06       70.53       70.00    
  47  -1000.0     -1000.0     -1000.0       102.0       101.8       101.5       101.1       100.5       100.1       99.55    
        98.94       98.25       97.48       96.61       95.66       94.62       93.58       92.57       91.56       90.58    
        89.61       88.65       87.70       86.77       85.87       84.98       84.12       83.29       82.49       81.72    
        80.98       80.27       79.58       78.91       78.27       77.64       77.04       76.45       75.87       75.31    
        74.76       74.22       73.69       73.16       72.64       72.12       71.60       71.07       70.54       70.00    
  48  -1000.0     -1000.0     -1000.0     -1000.0       101.7       101.4       101.1       100.6       100.1       99.53    
        98.95       98.27       97.51       96.65       95.70       94.66       93.63       92.62       91.62       90.63    
        89.67       88.72       87.78       86.85       85.95       85.07       84.21       83.38       82.58       81.81    
        81.07       80.35       79.65       78.98       78.33       77.71       77.10       76.50       75.92       75.36    
        74.80       74.26       73.72       73.19       72.66       72.14       71.61       71.08       70.54       70.00    
  49  -1000.0     -1000.0     -1000.0     -1000.0     -1000.0       101.4       101.1       100.7       100.1       99.48    
        98.94       98.28       97.52       96.67       95.72       94.68       93.66       92.64       91.64       90.66    
        89.70       88.75       87.81       86.89       85.99       85.11       84.26       83.43       82.63       81.86    
        81.11       80.39       79.69       79.02       78.37       77.74       77.12       76.53       75.95       75.38    
        74.82       74.28       73.74       73.21       72.68       72.15       71.62       71.09       70.55       70.00    
  50  -1000.0     -1000.0     -1000.0     -1000.0     -1000.0     -1000.0     -1000.0     -1000.0     -1000.0     -1000.0    
      -1000.0     -1000.0     -1000.0     -1000.0     -1000.0     -1000.0     -1000.0     -1000.0     -1000.0     -1000.0    
      -1000.0     -1000.0     -1000.0     -1000.0     -1000.0     -1000.0     -1000.0     -1000.0     -1000.0     -1000.0    
      -1000.0     -1000.0     -1000.0     -1000.0     -1000.0     -1000.0     -1000.0     -1000.0     -1000.0     -1000.0    
      -1000.0     -1000.0     -1000.0     -1000.0     -1000.0     -1000.0     -1000.0     -1000.0     -1000.0       70.00    
1
              HEAD IN LAYER   2 AT END OF TIME STEP   1 IN STRESS PERIOD    1
  ---------------------------------------------------------------------------

            1           2           3           4           5           6           7           8           9          10
           11          12          13          14          15          16          17          18          19          20
           21          22          23          24          25          26          27          28          29          30
           31          32          33          34          35          36          37          38          39          40
           41          42          43          44          45          46          47          48          49          50
 ........................................................................................................................
   1  -1000.0     -1000.0     -1000.0     -1000.0     -1000.0     -1000.0     -1000.0     -1000.0     -1000.0     -1000.0    
      -1000.0     -1000.0     -1000.0     -1000.0     -1000.0     -1000.0     -1000.0     -1000.0     -1000.0     -1000.0    
      -1000.0     -1000.0     -1000.0     -1000.0     -1000.0     -1000.0     -1000.0     -1000.0     -1000.0     -1000.0    
      -1000.0     -1000.0     -1000.0     -1000.0     -1000.0     -1000.0     -1000.0     -1000.0     -1000.0     -1000.0    
      -1000.0     -1000.0     -1000.0     -1000.0     -1000.0     -1000.0     -1000.0     -1000.0     -1000.0       70.00    
   2  -1000.0     -1000.0     -1000.0     -1000.0     -1000.0     -1000.0     -1000.0       100.4       99.91       99.27    
        98.73       98.08       97.33       96.49       95.55       94.52       93.50       92.50       91.52       90.55    
        89.58       88.64       87.72       86.83       85.96       85.11       84.29       83.49       82.72       81.96    
        81.23       80.52       79.83       79.16       78.51       77.87       77.25       76.64       76.05       75.47    
        74.90       74.34       73.78       73.23       72.69       72.15       71.61       71.07       70.54       70.00    
   3  -1000.0     -1000.0     -1000.0     -1000.0     -1000.0     -1000.0       100.9       100.4       99.84       99.32    
        98.74       98.07       97.31       96.47       95.53       94.50       93.48       92.48       91.49       90.52    
        89.55       88.61       87.69       86.80       85.93       85.08       84.26       83.46       82.69       81.93    
        81.20       80.49       79.81       79.14       78.48       77.85       77.23       76.63       76.03       75.45    
        74.88       74.32       73.77       73.22       72.68       72.14       71.61       71.07       70.54       70.00    
   4  -1000.0     -1000.0     -1000.0     -1000.0     -1000.0       101.2       100.8       100.3       99.86       99.33    
        98.73       98.05       97.28       96.43       95.48       94.45       93.43       92.42       91.44       90.46    
        89.49       88.55       87.63       86.74       85.87       85.02       84.20       83.40       82.63       81.88    
        81.15       80.44       79.76       79.09       78.44       77.81       77.19       76.59       76.00       75.42    
        74.86       74.30       73.75       73.21       72.67       72.13       71.60       71.06       70.53       70.00    
   5  -1000.0     -1000.0     -1000.0     -1000.0       101.5       101.2       100.7       100.3       99.86       99.31    
        98.70       98.00       97.22       96.36       95.41       94.37       93.35       92.34       91.35       90.38    
        89.41       88.46       87.54       86.65       85.77       84.93       84.11       83.31       82.54       81.79    
        81.07       80.36       79.68       79.02       78.37       77.74       77.13       76.54       75.95       75.38    
        74.82       74.26       73.72       73.18       72.64       72.11       71.58       71.06       70.53       70.00    
   6  -1000.0     -1000.0     -1000.0       101.7       101.4       101.1       100.7       100.3       99.82       99.26    
        98.63       97.93       97.14       96.27       95.32       94.27       93.25       92.23       91.24       90.26    
        89.29       88.34       87.42       86.52       85.65       84.81       83.98       83.19       82.42       81.68    
        80.96       80.26       79.58       78.92       78.28       77.66       77.06       76.46       75.89       75.32    
        74.76       74.22       73.68       73.14       72.61       72.09       71.57       71.04       70.52       70.00    
   7  -1000.0     -1000.0       101.8       101.6       101.3       101.0       100.7       100.2       99.75       99.18    
        98.54       97.83       97.03       96.16       95.19       94.15       93.11       92.10       91.10       90.12    
        89.14       88.19       87.27       86.37       85.50       84.65       83.83       83.04       82.27       81.53    
        80.82       80.13       79.45       78.80       78.17       77.56       76.96       76.37       75.80       75.24    
        74.69       74.16       73.62       73.10       72.58       72.06       71.54       71.03       70.51       70.00    
   8  -1000.0       101.8       101.7       101.5       101.2       100.9       100.6       100.1       99.64       99.07    
        98.42       97.70       96.90       96.01       95.04       93.99       92.95       91.93       90.93       89.95    
        88.97       88.01       87.09       86.18       85.31       84.46       83.64       82.85       82.09       81.36    
        80.65       79.97       79.30       78.66       78.04       77.43       76.84       76.27       75.70       75.15    
        74.61       74.08       73.56       73.04       72.53       72.02       71.52       71.01       70.51       70.00    
   9  -1000.0       101.6       101.5       101.3       101.1       100.8       100.5       100.0       99.51       98.93    
        98.27       97.54       96.73       95.84       94.86       93.80       92.76       91.74       90.73       89.74    
        88.76       87.80       86.87       85.97       85.09       84.24       83.43       82.64       81.88       81.16    
        80.46       79.78       79.13       78.50       77.88       77.29       76.71       76.14       75.59       75.05    
        74.52       74.00       73.49       72.98       72.48       71.98       71.49       70.99       70.50       70.00    
  10  -1000.0       101.4       101.3       101.2       101.0       100.7       100.3       99.86       99.35       98.76    
        98.09       97.35       96.53       95.64       94.65       93.59       92.54       91.51       90.50       89.51    
        88.52       87.56       86.63       85.72       84.84       83.99       83.18       82.40       81.65       80.93    
        80.24       79.57       78.93       78.31       77.71       77.12       76.55       76.00       75.46       74.93    
        74.41       73.91       73.41       72.91       72.42       71.94       71.45       70.97       70.48       70.00    
  11  -1000.0       101.3       101.2       101.0       100.8       100.5       100.1       99.67       99.15       98.55    
        97.88       97.13       96.31       95.40       94.41       93.34       92.29       91.25       90.24       89.24    
        88.26       87.29       86.36       85.45       84.57       83.71       82.90       82.12       81.38       80.67    
        79.99       79.34       78.71       78.10       77.51       76.94       76.38       75.84       75.31       74.80    
        74.30       73.80       73.32       72.83       72.36       71.88       71.41       70.94       70.47       70.00    
  12  -1000.0       101.1       101.0       100.8       100.6       100.3       99.92       99.46       98.93       98.32    
        97.64       96.88       96.05       95.13       94.14       93.06       92.00       90.96       89.95       88.95    
        87.96       87.00       86.06       85.15       84.26       83.41       82.60       81.82       81.09       80.39    
        79.72       79.08       78.46       77.87       77.29       76.74       76.19       75.67       75.16       74.66    
        74.17       73.69       73.22       72.75       72.29       71.83       71.37       70.91       70.46       70.00    
  13  -1000.0       100.9       100.8       100.6       100.4       100.1       99.68       99.21       98.67       98.05    
        97.36       96.60       95.75       94.83       93.83       92.74       91.68       90.64       89.62       88.62    
        87.63       86.67       85.73       84.82       83.94       83.08       82.27       81.50       80.78       80.09    
        79.43       78.81       78.20       77.62       77.06       76.52       75.99       75.48       74.98       74.50    
        74.03       73.56       73.11       72.66       72.21       71.77       71.33       70.89       70.44       70.00    
  14  -1000.0       100.6       100.6       100.4       100.1       99.82       99.42       98.94       98.38       97.76    
        97.05       96.27       95.42       94.49       93.48       92.39       91.33       90.28       89.26       88.26    
        87.28       86.32       85.38       84.47       83.59       82.73       81.93       81.16       80.45       79.77    
        79.13       78.51       77.93       77.36       76.81       76.29       75.77       75.28       74.80       74.33    
        73.88       73.43       73.00       72.57       72.14       71.71       71.28       70.86       70.43       70.00    
  15  -1000.0       100.4       100.3       100.1       99.88       99.55       99.13       98.64       98.07       97.42    
        96.71       95.92       95.05       94.12       93.10       92.01       90.94       89.89       88.87       87.87    
        86.89       85.93       85.01       84.10       83.22       82.37       81.57       80.82       80.11       79.44    
        78.81       78.21       77.64       77.09       76.56       76.05       75.55       75.07       74.61       74.16    
        73.72       73.30       72.88       72.47       72.06       71.65       71.24       70.83       70.41       70.00    
  16  -1000.0       100.1       100.1       99.87       99.60       99.25       98.81       98.30       97.72       97.06    
        96.32       95.52       94.65       93.70       92.68       91.58       90.50       89.46       88.44       87.45    
        86.47       85.53       84.61       83.71       82.84       82.00       81.21       80.46       79.77       79.11    
        78.50       77.91       77.35       76.82       76.30       75.80       75.32       74.85       74.41       73.98    
        73.56       73.16       72.77       72.37       71.98       71.59       71.20       70.80       70.40       70.00    
  17  -1000.0       99.88       99.78       99.59       99.30       98.93       98.47       97.94       97.33       96.65    
        95.90       95.08       94.20       93.24       92.21       91.10       90.03       88.99       87.97       86.99    
        86.03       85.10       84.19       83.31       82.45       81.62       80.84       80.11       79.43       78.79    
        78.19       77.62       77.07       76.55       76.04       75.56       75.09       74.64       74.21       73.80    
        73.41       73.03       72.65       72.28       71.91       71.54       71.16       70.78       70.39       70.00    
  18  -1000.0       99.61       99.50       99.29       98.98       98.58       98.10       97.54       96.91       96.20    
        95.43       94.60       93.70       92.73       91.69       90.59       89.51       88.47       87.47       86.49    
        85.55       84.64       83.76       82.90       82.06       81.25       80.49       79.78       79.11       78.49    
        77.90       77.35       76.82       76.30       75.81       75.33       74.87       74.43       74.01       73.62    
        73.26       72.90       72.55       72.21       71.86       71.50       71.13       70.76       70.38       70.00    
  19  -1000.0       99.35       99.23       98.99       98.65       98.22       97.70       97.11       96.44       95.71    
        94.92       94.06       93.15       92.17       91.13       90.01       88.94       87.91       86.91       85.95    
        85.04       84.17       83.32       82.48       81.67       80.89       80.15       79.46       78.82       78.22    
        77.65       77.11       76.59       76.09       75.60       75.13       74.67       74.24       73.83       73.47    
        73.12       72.80       72.47       72.15       71.82       71.47       71.12       70.75       70.38       70.00    
  20  -1000.0       99.10       98.96       98.70       98.32       97.84       97.27       96.64       95.93       95.17    
        94.35       93.47       92.54       91.55       90.50       89.39       88.32       87.29       86.31       85.37    
        84.51       83.68       82.87       82.07       81.30       80.55       79.84       79.18       78.57       77.99    
        77.44       76.91       76.41       75.92       75.44       74.97       74.52       74.08       73.69       73.34    
        73.03       72.73       72.43       72.12       71.81       71.48       71.13       70.76       70.39       70.00    
  21  -1000.0       98.90       98.73       98.41       97.97       97.43       96.81       96.12       95.37       94.57    
        93.71       92.81       91.86       90.86       89.81       88.70       87.63       86.62       85.65       84.73    
        83.95       83.19       82.44       81.69       80.95       80.25       79.58       78.95       78.36       77.81    
        77.28       76.78       76.29       75.81       75.34       74.88       74.42       73.98       73.58       73.27    
        72.98       72.71       72.43       72.14       71.84       71.52       71.17       70.80       70.41       70.00    
  22  -1000.0       98.75       98.54       98.14       97.62       97.00       96.31       95.55       94.75       93.90    
        93.01       92.08       91.11       90.11       89.05       87.94       86.88       85.88       84.92       84.03    
        83.41       82.73       82.04       81.34       80.65       79.99       79.37       78.78       78.22       77.69    
        77.19       76.70       76.23       75.77       75.31       74.85       74.40       73.96       73.55       73.27    
        73.01       72.76       72.49       72.22       71.92       71.60       71.25       70.86       70.44       70.00    
  23  -1000.0       98.85       98.55       98.05       97.42       96.70       95.92       95.10       94.23       93.34    
        92.41       91.46       90.48       89.47       88.42       87.32       86.27       85.27       84.33       83.46    
        82.94       82.35       81.72       81.07       80.42       79.81       79.22       78.66       78.14       77.64    
        77.15       76.69       76.23       75.78       75.34       74.90       74.47       74.05       73.68       73.38    
        73.12       72.86       72.60       72.33       72.04       71.72       71.36       70.96       70.51       70.00    
  24  -1000.0       99.27       98.81       98.15       97.37       96.54       95.66       94.76       93.83       92.89    
        91.93       90.95       89.96       88.95       87.92       86.84       85.81       84.81       83.87       83.01    
        82.60       82.09       81.50       80.89       80.28       79.69       79.13       78.61       78.10       77.62    
        77.16       76.71       76.27       75.83       75.41       74.99       74.58       74.19       73.83       73.53    
        73.25       72.99       72.73       72.46       72.17       71.85       71.49       71.08       70.59       70.00    
  25  -1000.0       100.2       99.36       98.43       97.47       96.49       95.51       94.53       93.54       92.55    
        91.56       90.56       89.56       88.56       87.55       86.53       85.53       84.53       83.53       82.59    
        82.41       81.97       81.41       80.81       80.20       79.63       79.09       78.58       78.08       77.61    
        77.16       76.71       76.28       75.86       75.45       75.05       74.65       74.28       73.94       73.63    
        73.35       73.07       72.80       72.53       72.24       71.92       71.56       71.15       70.65       70.00    
  26  -1000.0       99.19       98.74       98.08       97.31       96.48       95.61       94.71       93.79       92.85    
        91.89       90.92       89.93       88.91       87.87       86.79       85.75       84.75       83.80       82.94    
        82.53       82.02       81.43       80.81       80.19       79.60       79.03       78.50       78.00       77.52    
        77.06       76.61       76.18       75.77       75.36       74.96       74.58       74.22       73.88       73.56    
        73.27       72.98       72.70       72.42       72.12       71.80       71.45       71.04       70.57       70.00    
  27  -1000.0       98.72       98.43       97.94       97.31       96.61       95.84       95.02       94.16       93.27    
        92.35       91.40       90.41       89.40       88.34       87.23       86.17       85.16       84.21       83.33    
        82.82       82.22       81.57       80.91       80.25       79.62       79.03       78.46       77.93       77.44    
        76.96       76.51       76.07       75.65       75.24       74.85       74.47       74.11       73.77       73.45    
        73.14       72.84       72.55       72.25       71.95       71.63       71.28       70.90       70.47       70.00    
  28  -1000.0       98.62       98.40       98.02       97.50       96.89       96.20       95.46       94.66       93.81    
        92.93       92.00       91.03       90.01       88.95       87.83       86.76       85.74       84.77       83.85    
        83.23       82.55       81.84       81.12       80.42       79.74       79.10       78.50       77.93       77.41    
        76.92       76.45       76.00       75.57       75.16       74.76       74.38       74.02       73.67       73.34    
        73.02       72.72       72.41       72.11       71.80       71.48       71.14       70.78       70.40       70.00    
  29  -1000.0       98.78       98.62       98.30       97.87       97.34       96.72       96.04       95.29       94.49    
        93.64       92.74       91.78       90.78       89.71       88.59       87.51       86.47       85.49       84.54    
        83.76       82.98       82.20       81.43       80.67       79.94       79.25       78.61       78.01       77.46    
        76.94       76.46       76.00       75.56       75.14       74.74       74.35       73.98       73.63       73.29    
        72.96       72.64       72.32       72.01       71.69       71.37       71.04       70.70       70.35       70.00    
  30  -1000.0       99.01       98.87       98.61       98.23       97.76       97.20       96.56       95.86       95.10    
        94.28       93.40       92.46       91.46       90.40       89.28       88.19       87.15       86.14       85.18    
        84.30       83.45       82.61       81.78       80.98       80.20       79.47       78.79       78.16       77.58    
        77.05       76.54       76.07       75.62       75.19       74.78       74.38       74.01       73.64       73.29    
        72.95       72.62       72.29       71.96       71.64       71.32       70.99       70.66       70.33       70.00    
  31  -1000.0       99.27       99.16       98.92       98.59       98.16       97.64       97.05       96.38       95.65    
        94.86       94.00       93.07       92.09       91.03       89.90       88.81       87.76       86.74       85.76    
        84.82       83.92       83.04       82.17       81.32       80.51       79.74       79.03       78.38       77.78    
        77.22       76.70       76.21       75.74       75.30       74.88       74.48       74.09       73.71       73.35    
        72.99       72.65       72.31       71.97       71.64       71.31       70.98       70.65       70.32       70.00    
  32  -1000.0       99.56       99.45       99.24       98.93       98.53       98.05       97.49       96.86       96.15    
        95.38       94.54       93.63       92.65       91.60       90.48       89.38       88.32       87.29       86.29    
        85.32       84.39       83.47       82.57       81.69       80.85       80.06       79.32       78.65       78.02    
        77.45       76.91       76.40       75.93       75.47       75.04       74.62       74.22       73.83       73.45    
        73.08       72.73       72.37       72.02       71.68       71.34       71.00       70.66       70.33       70.00    
  33  -1000.0       99.84       99.74       99.55       99.27       98.89       98.44       97.90       97.29       96.61    
        95.85       95.03       94.13       93.16       92.12       91.00       89.91       88.84       87.80       86.79    
        85.80       84.84       83.89       82.97       82.08       81.21       80.40       79.64       78.95       78.31    
        77.72       77.16       76.64       76.15       75.68       75.23       74.80       74.39       73.98       73.59    
        73.21       72.83       72.47       72.10       71.74       71.39       71.04       70.69       70.34       70.00    
  34  -1000.0       100.1       100.0       99.85       99.58       99.23       98.79       98.28       97.69       97.02    
        96.29       95.48       94.59       93.63       92.59       91.48       90.38       89.32       88.27       87.25    
        86.25       85.27       84.31       83.37       82.46       81.58       80.76       79.99       79.28       78.63    
        78.02       77.45       76.91       76.41       75.92       75.46       75.01       74.58       74.16       73.75    
        73.35       72.96       72.58       72.20       71.82       71.45       71.09       70.72       70.36       70.00    
  35  -1000.0       100.4       100.3       100.1       99.88       99.54       99.12       98.63       98.05       97.40    
        96.68       95.88       95.01       94.06       93.03       91.91       90.82       89.76       88.71       87.68    
        86.67       85.68       84.71       83.77       82.85       81.96       81.12       80.35       79.63       78.96    
        78.34       77.75       77.20       76.68       76.18       75.70       75.24       74.79       74.35       73.93    
        73.51       73.10       72.70       72.30       71.91       71.52       71.14       70.76       70.38       70.00    
  36  -1000.0       100.7       100.6       100.4       100.2       99.84       99.43       98.95       98.39       97.75    
        97.04       96.25       95.39       94.44       93.42       92.31       91.22       90.16       89.11       88.08    
        87.06       86.07       85.10       84.15       83.22       82.33       81.49       80.71       79.98       79.30    
        78.66       78.06       77.50       76.96       76.45       75.95       75.47       75.00       74.55       74.10    
        73.67       73.24       72.82       72.41       72.00       71.59       71.19       70.79       70.40       70.00    
  37  -1000.0       100.9       100.8       100.7       100.4       100.1       99.71       99.24       98.69       98.06    
        97.36       96.58       95.73       94.79       93.78       92.67       91.59       90.53       89.48       88.45    
        87.43       86.43       85.46       84.51       83.59       82.69       81.85       81.06       80.33       79.64    
        78.99       78.38       77.80       77.24       76.71       76.19       75.69       75.21       74.74       74.28    
        73.82       73.38       72.94       72.51       72.08       71.66       71.24       70.83       70.41       70.00    
  38  -1000.0       101.1       101.0       100.9       100.7       100.3       99.96       99.50       98.96       98.34    
        97.65       96.89       96.04       95.11       94.10       93.00       91.92       90.86       89.82       88.79    
        87.77       86.78       85.80       84.85       83.93       83.04       82.20       81.41       80.66       79.97    
        79.31       78.68       78.08       77.51       76.96       76.43       75.91       75.41       74.92       74.44    
        73.97       73.51       73.06       72.61       72.17       71.73       71.30       70.86       70.43       70.00    
  39  -1000.0       101.3       101.3       101.1       100.9       100.6       100.2       99.73       99.20       98.60    
        97.91       97.15       96.31       95.39       94.39       93.30       92.22       91.17       90.13       89.10    
        88.09       87.09       86.12       85.18       84.26       83.37       82.53       81.74       80.99       80.28    
        79.61       78.97       78.36       77.77       77.20       76.65       76.12       75.60       75.09       74.60    
        74.11       73.64       73.17       72.71       72.25       71.79       71.34       70.89       70.45       70.00    
  40  -1000.0       101.5       101.4       101.3       101.1       100.8       100.4       99.94       99.42       98.82    
        98.14       97.39       96.56       95.65       94.65       93.56       92.49       91.44       90.41       89.39    
        88.37       87.38       86.42       85.48       84.56       83.68       82.84       82.04       81.29       80.57    
        79.89       79.24       78.61       78.01       77.42       76.86       76.31       75.78       75.25       74.75    
        74.25       73.75       73.27       72.79       72.32       71.85       71.39       70.92       70.46       70.00    
  41  -1000.0       101.7       101.6       101.4       101.2       100.9       100.6       100.1       99.60       99.01    
        98.34       97.60       96.77       95.87       94.88       93.80       92.73       91.69       90.66       89.64    
        88.63       87.65       86.69       85.75       84.84       83.97       83.13       82.33       81.57       80.84    
        80.15       79.48       78.84       78.23       77.63       77.05       76.49       75.94       75.40       74.88    
        74.37       73.86       73.36       72.87       72.39       71.91       71.43       70.95       70.48       70.00    
  42  -1000.0       101.9       101.7       101.6       101.4       101.1       100.7       100.3       99.76       99.17    
        98.51       97.78       96.96       96.06       95.07       94.00       92.94       91.90       90.88       89.87    
        88.86       87.88       86.93       86.00       85.10       84.22       83.39       82.58       81.82       81.08    
        80.38       79.70       79.05       78.42       77.81       77.22       76.64       76.08       75.54       75.00    
        74.47       73.96       73.45       72.95       72.45       71.96       71.47       70.98       70.49       70.00    
  43  -1000.0       102.0       101.9       101.7       101.5       101.2       100.8       100.4       99.88       99.31    
        98.65       97.92       97.12       96.22       95.24       94.18       93.13       92.09       91.07       90.07    
        89.07       88.09       87.14       86.22       85.32       84.45       83.61       82.81       82.04       81.30    
        80.59       79.90       79.24       78.59       77.97       77.37       76.78       76.21       75.65       75.11    
        74.57       74.04       73.52       73.01       72.50       72.00       71.50       71.00       70.50       70.00    
  44  -1000.0     -1000.0       102.1       101.9       101.5       101.3       100.9       100.5       99.98       99.41    
        98.77       98.05       97.24       96.36       95.39       94.33       93.28       92.25       91.24       90.24    
        89.24       88.27       87.33       86.41       85.51       84.64       83.81       83.00       82.23       81.48    
        80.76       80.07       79.39       78.74       78.11       77.50       76.90       76.32       75.75       75.20    
        74.65       74.12       73.59       73.07       72.55       72.04       71.53       71.02       70.51       70.00    
  45  -1000.0     -1000.0     -1000.0       102.0       101.7       101.3       100.9       100.5       100.0       99.49    
        98.85       98.14       97.35       96.47       95.50       94.45       93.41       92.38       91.37       90.38    
        89.39       88.42       87.48       86.56       85.67       84.81       83.97       83.16       82.39       81.63    
        80.91       80.21       79.53       78.87       78.23       77.61       77.00       76.41       75.84       75.28    
        74.72       74.18       73.64       73.11       72.59       72.07       71.55       71.03       70.52       70.00    
  46  -1000.0     -1000.0     -1000.0     -1000.0       101.7       101.4       101.0       100.6       100.1       99.53    
        98.91       98.21       97.42       96.55       95.59       94.54       93.51       92.49       91.48       90.49    
        89.50       88.54       87.60       86.69       85.80       84.94       84.10       83.29       82.51       81.76    
        81.02       80.32       79.63       78.97       78.32       77.70       77.08       76.49       75.91       75.34    
        74.78       74.23       73.69       73.15       72.62       72.09       71.57       71.04       70.52       70.00    
  47  -1000.0     -1000.0     -1000.0     -1000.0     -1000.0       101.5       101.1       100.5       100.1       99.55    
        98.94       98.25       97.48       96.61       95.66       94.62       93.58       92.57       91.56       90.58    
        89.59       88.63       87.69       86.78       85.89       85.03       84.20       83.39       82.61       81.85    
        81.11       80.40       79.71       79.04       78.39       77.76       77.15       76.55       75.96       75.38    
        74.82       74.27       73.72       73.18       72.64       72.11       71.58       71.05       70.53       70.00    
  48  -1000.0     -1000.0     -1000.0     -1000.0     -1000.0     -1000.0       101.1       100.6       100.1       99.53    
        98.95       98.27       97.51       96.65       95.70       94.66       93.63       92.62       91.62       90.63    
        89.65       88.69       87.75       86.84       85.96       85.10       84.26       83.45       82.67       81.91    
        81.17       80.46       79.76       79.09       78.44       77.80       77.19       76.58       75.99       75.41    
        74.85       74.29       73.74       73.20       72.66       72.12       71.59       71.06       70.53       70.00    
  49  -1000.0     -1000.0     -1000.0     -1000.0     -1000.0     -1000.0     -1000.0       100.7       100.1       99.48    
        98.94       98.28       97.52       96.67       95.72       94.68       93.66       92.64       91.64       90.66    
        89.68       88.72       87.78       86.88       85.99       85.13       84.29       83.48       82.70       81.94    
        81.20       80.48       79.79       79.12       78.46       77.83       77.21       76.60       76.01       75.43    
        74.86       74.30       73.75       73.21       72.67       72.13       71.60       71.06       70.53       70.00    
  50  -1000.0     -1000.0     -1000.0     -1000.0     -1000.0     -1000.0     -1000.0     -1000.0     -1000.0     -1000.0    
      -1000.0     -1000.0     -1000.0     -1000.0     -1000.0     -1000.0     -1000.0     -1000.0     -1000.0     -1000.0    
      -1000.0     -1000.0     -1000.0     -1000.0     -1000.0     -1000.0     -1000.0     -1000.0     -1000.0     -1000.0    
      -1000.0     -1000.0     -1000.0     -1000.0     -1000.0     -1000.0     -1000.0     -1000.0     -1000.0     -1000.0    
      -1000.0     -1000.0     -1000.0     -1000.0     -1000.0     -1000.0     -1000.0     -1000.0     -1000.0       70.00    
1
              HEAD IN LAYER   3 AT END OF TIME STEP   1 IN STRESS PERIOD    1
  ---------------------------------------------------------------------------

            1           2           3           4           5           6           7           8           9          10
           11          12          13          14          15          16          17          18          19          20
           21          22          23          24          25          26          27          28          29          30
           31          32          33          34          35          36          37          38          39          40
[...]
        83.33       83.09       82.76       82.36       81.91       81.42       80.89       80.34       79.77       79.18    
        78.58       77.95       77.30       76.62       75.90       75.13       74.26       73.29       72.31       72.34    
        72.37       72.29       72.12       71.90       71.63       71.33       71.02       70.68       70.34       70.00    
  24  -1000.0       99.27       98.81       98.15       97.37       96.54       95.66       94.76       93.83       92.89    
        91.93       90.95       89.96       88.95       87.92       86.84       85.81       84.81       83.87       83.01    
        83.00       82.85       82.59       82.23       81.80       81.33       80.82       80.29       79.73       79.15    
        78.55       77.94       77.30       76.65       75.97       75.25       74.51       73.76       73.12       72.82    
        72.62       72.43       72.20       71.94       71.66       71.35       71.03       70.69       70.35       70.00    
  25  -1000.0       100.2       99.36       98.43       97.47       96.49       95.51       94.53       93.54       92.55    
        91.56       90.56       89.56       88.56       87.55       86.53       85.53       84.53       83.54       82.59    
        82.82       82.75       82.51       82.17       81.76       81.30       80.80       80.27       79.72       79.14    
        78.56       77.96       77.34       76.71       76.06       75.41       74.75       74.12       73.58       73.18    
        72.87       72.59       72.31       72.01       71.71       71.38       71.05       70.71       70.35       70.00    
  26  -1000.0       99.19       98.74       98.08       97.31       96.48       95.61       94.71       93.79       92.85    
        91.89       90.92       89.93       88.91       87.87       86.79       85.75       84.75       83.80       82.94    
        82.95       82.82       82.56       82.21       81.79       81.32       80.82       80.29       79.74       79.17    
        78.59       78.00       77.40       76.79       76.18       75.57       74.97       74.40       73.89       73.46    
        73.09       72.75       72.42       72.09       71.76       71.42       71.07       70.72       70.36       70.00    
  27  -1000.0       98.72       98.43       97.94       97.31       96.61       95.84       95.02       94.16       93.27    
        92.35       91.40       90.41       89.40       88.34       87.23       86.17       85.16       84.21       83.33    
        83.23       83.01       82.70       82.32       81.88       81.40       80.89       80.35       79.80       79.23    
        78.66       78.07       77.48       76.89       76.30       75.72       75.16       74.62       74.12       73.68    
        73.27       72.89       72.53       72.18       71.82       71.46       71.10       70.74       70.37       70.00    
  28  -1000.0       98.62       98.40       98.02       97.50       96.89       96.20       95.46       94.66       93.82    
        92.93       92.00       91.03       90.01       88.95       87.83       86.76       85.74       84.77       83.85    
        83.63       83.31       82.93       82.50       82.03       81.52       80.99       80.45       79.89       79.32    
        78.74       78.16       77.58       77.01       76.43       75.87       75.32       74.80       74.31       73.85    
        73.42       73.02       72.63       72.25       71.88       71.51       71.13       70.76       70.38       70.00    
  29  -1000.0       98.78       98.62       98.30       97.87       97.34       96.72       96.04       95.29       94.49    
        93.64       92.74       91.78       90.78       89.71       88.59       87.51       86.47       85.49       84.55    
        84.12       83.69       83.23       82.74       82.22       81.69       81.14       80.57       80.00       79.43    
        78.85       78.27       77.70       77.13       76.56       76.01       75.47       74.96       74.47       74.00    
        73.56       73.14       72.73       72.33       71.94       71.55       71.16       70.78       70.39       70.00    
  30  -1000.0       99.01       98.87       98.61       98.23       97.76       97.20       96.56       95.86       95.10    
        94.28       93.40       92.46       91.46       90.40       89.28       88.19       87.15       86.14       85.18    
        84.63       84.09       83.56       83.01       82.46       81.89       81.31       80.73       80.15       79.56    
        78.98       78.40       77.82       77.25       76.69       76.15       75.62       75.10       74.61       74.14    
        73.68       73.24       72.82       72.41       72.00       71.60       71.20       70.80       70.40       70.00    
  31  -1000.0       99.27       99.16       98.92       98.59       98.16       97.64       97.05       96.38       95.65    
        94.86       94.00       93.07       92.09       91.03       89.90       88.81       87.76       86.74       85.76    
        85.12       84.51       83.91       83.31       82.71       82.11       81.51       80.91       80.31       79.71    
        79.12       78.54       77.96       77.39       76.83       76.28       75.75       75.24       74.74       74.26    
        73.80       73.35       72.91       72.48       72.06       71.64       71.23       70.82       70.41       70.00    
  32  -1000.0       99.56       99.45       99.24       98.93       98.53       98.05       97.49       96.86       96.15    
        95.38       94.54       93.63       92.65       91.60       90.48       89.38       88.32       87.29       86.29    
        85.59       84.92       84.27       83.62       82.99       82.35       81.73       81.10       80.49       79.88    
        79.28       78.69       78.10       77.53       76.97       76.42       75.89       75.37       74.86       74.38    
        73.90       73.44       72.99       72.55       72.11       71.69       71.26       70.84       70.42       70.00    
  33  -1000.0       99.84       99.74       99.55       99.27       98.89       98.44       97.90       97.29       96.61    
        95.85       95.03       94.13       93.16       92.12       91.00       89.91       88.84       87.80       86.79    
        86.04       85.32       84.62       83.94       83.27       82.61       81.95       81.31       80.68       80.06    
        79.44       78.84       78.25       77.68       77.11       76.56       76.02       75.49       74.98       74.49    
        74.00       73.53       73.07       72.62       72.17       71.73       71.29       70.86       70.43       70.00    
  34  -1000.0       100.1       100.0       99.85       99.58       99.23       98.79       98.28       97.69       97.02    
        96.29       95.48       94.59       93.63       92.59       91.48       90.38       89.32       88.27       87.25    
        86.47       85.71       84.97       84.25       83.55       82.86       82.19       81.53       80.88       80.24    
        79.62       79.01       78.41       77.82       77.25       76.69       76.15       75.62       75.10       74.59    
        74.10       73.62       73.15       72.68       72.23       71.77       71.33       70.88       70.44       70.00    
  35  -1000.0       100.4       100.3       100.1       99.88       99.54       99.12       98.63       98.05       97.40    
        96.68       95.88       95.01       94.06       93.03       91.91       90.82       89.76       88.71       87.68    
        86.86       86.07       85.30       84.56       83.83       83.12       82.42       81.74       81.08       80.43    
        79.79       79.17       78.57       77.97       77.39       76.83       76.28       75.74       75.21       74.70    
        74.20       73.70       73.22       72.75       72.28       71.82       71.36       70.90       70.45       70.00    
  36  -1000.0       100.7       100.6       100.4       100.2       99.84       99.43       98.95       98.39       97.75    
        97.04       96.25       95.39       94.44       93.42       92.31       91.22       90.16       89.11       88.08    
        87.24       86.42       85.62       84.85       84.10       83.37       82.65       81.96       81.28       80.62    
        79.97       79.34       78.72       78.12       77.53       76.96       76.40       75.85       75.32       74.80    
        74.29       73.78       73.29       72.81       72.33       71.86       71.39       70.92       70.46       70.00    
  37  -1000.0       100.9       100.8       100.7       100.4       100.1       99.71       99.24       98.69       98.06    
        97.36       96.58       95.73       94.79       93.78       92.67       91.59       90.53       89.48       88.45    
        87.58       86.74       85.93       85.13       84.36       83.61       82.88       82.17       81.48       80.80    
        80.14       79.50       78.88       78.27       77.67       77.09       76.52       75.97       75.42       74.89    
        74.37       73.86       73.36       72.87       72.38       71.90       71.42       70.94       70.47       70.00    
  38  -1000.0       101.1       101.0       100.9       100.7       100.3       99.96       99.50       98.96       98.34    
        97.65       96.89       96.04       95.11       94.10       93.00       91.92       90.86       89.82       88.79    
        87.90       87.04       86.21       85.40       84.61       83.84       83.10       82.37       81.67       80.98    
        80.31       79.66       79.03       78.41       77.80       77.21       76.64       76.07       75.52       74.98    
        74.46       73.94       73.43       72.92       72.43       71.93       71.45       70.96       70.48       70.00    
  39  -1000.0       101.3       101.3       101.1       100.9       100.6       100.2       99.73       99.20       98.60    
        97.91       97.15       96.31       95.39       94.39       93.30       92.22       91.17       90.13       89.10    
        88.20       87.32       86.47       85.65       84.84       84.06       83.30       82.57       81.85       81.15    
        80.47       79.81       79.17       78.54       77.93       77.33       76.75       76.18       75.62       75.07    
        74.53       74.01       73.49       72.98       72.47       71.97       71.47       70.98       70.49       70.00    
  40  -1000.0       101.5       101.4       101.3       101.1       100.8       100.4       99.94       99.42       98.82    
        98.14       97.39       96.56       95.64       94.65       93.56       92.49       91.44       90.41       89.39    
        88.47       87.58       86.71       85.87       85.06       84.27       83.50       82.75       82.02       81.31    
        80.63       79.96       79.30       78.67       78.05       77.44       76.85       76.27       75.71       75.15    
        74.61       74.07       73.54       73.02       72.51       72.00       71.50       71.00       70.50       70.00    
  41  -1000.0       101.7       101.6       101.4       101.2       100.9       100.6       100.1       99.60       99.01    
        98.34       97.60       96.77       95.87       94.87       93.80       92.73       91.69       90.66       89.64    
        88.71       87.81       86.93       86.08       85.26       84.45       83.67       82.92       82.18       81.46    
        80.77       80.09       79.43       78.79       78.16       77.55       76.95       76.36       75.79       75.23    
        74.67       74.13       73.60       73.07       72.55       72.03       71.52       71.01       70.51       70.00    
  42  -1000.0     -1000.0       101.7       101.6       101.4       101.1       100.7       100.3       99.76       99.17    
        98.51       97.78       96.96       96.06       95.07       94.00       92.94       91.90       90.88       89.87    
        88.93       88.02       87.13       86.27       85.44       84.62       83.84       83.07       82.33       81.60    
        80.90       80.21       79.54       78.89       78.26       77.64       77.03       76.44       75.86       75.29    
        74.73       74.19       73.64       73.11       72.58       72.06       71.54       71.03       70.51       70.00    
  43  -1000.0     -1000.0     -1000.0       101.7       101.5       101.2       100.8       100.4       99.88       99.31    
        98.65       97.92       97.12       96.22       95.24       94.18       93.13       92.09       91.07       90.07    
        89.12       88.20       87.31       86.44       85.59       84.78       83.98       83.21       82.45       81.72    
        81.01       80.32       79.65       78.99       78.35       77.72       77.11       76.51       75.93       75.35    
        74.79       74.23       73.69       73.15       72.61       72.08       71.56       71.04       70.52       70.00    
  44  -1000.0     -1000.0     -1000.0     -1000.0       101.5       101.3       100.9       100.5       99.98       99.41    
        98.77       98.05       97.24       96.36       95.39       94.33       93.28       92.25       91.24       90.24    
        89.28       88.36       87.46       86.58       85.73       84.91       84.10       83.32       82.57       81.83    
        81.11       80.42       79.74       79.07       78.43       77.80       77.18       76.58       75.99       75.41    
        74.84       74.28       73.72       73.18       72.64       72.11       71.58       71.05       70.52       70.00    
  45  -1000.0     -1000.0     -1000.0     -1000.0     -1000.0       101.3       100.9       100.5       100.0       99.49    
        98.85       98.14       97.35       96.47       95.50       94.45       93.41       92.38       91.37       90.38    
        89.42       88.49       87.58       86.70       85.85       85.02       84.21       83.42       82.66       81.92    
        81.20       80.50       79.81       79.14       78.49       77.86       77.24       76.63       76.03       75.45    
        74.88       74.31       73.76       73.21       72.66       72.12       71.59       71.06       70.53       70.00    
  46  -1000.0     -1000.0     -1000.0     -1000.0     -1000.0     -1000.0       101.0       100.6       100.1       99.53    
        98.91       98.21       97.42       96.55       95.59       94.54       93.51       92.49       91.48       90.49    
        89.53       88.59       87.68       86.80       85.94       85.10       84.29       83.50       82.74       81.99    
        81.27       80.56       79.87       79.20       78.55       77.91       77.28       76.67       76.07       75.49    
        74.91       74.34       73.78       73.23       72.68       72.14       71.60       71.07       70.53       70.00    
  47  -1000.0     -1000.0     -1000.0     -1000.0     -1000.0     -1000.0     -1000.0       100.5       100.1       99.55    
        98.94       98.25       97.48       96.61       95.66       94.62       93.58       92.57       91.56       90.58    
        89.61       88.67       87.76       86.87       86.01       85.17       84.36       83.57       82.80       82.05    
        81.32       80.61       79.92       79.25       78.59       77.95       77.32       76.71       76.10       75.51    
        74.93       74.36       73.80       73.24       72.69       72.15       71.61       71.07       70.53       70.00    
  48  -1000.0     -1000.0     -1000.0     -1000.0     -1000.0     -1000.0     -1000.0     -1000.0       100.1       99.53    
        98.95       98.27       97.51       96.65       95.70       94.66       93.63       92.62       91.62       90.63    
        89.66       88.72       87.81       86.92       86.06       85.22       84.40       83.61       82.83       82.08    
        81.35       80.64       79.95       79.27       78.62       77.97       77.34       76.73       76.12       75.53    
        74.95       74.38       73.81       73.25       72.70       72.16       71.61       71.07       70.54       70.00    
  49  -1000.0     -1000.0     -1000.0     -1000.0     -1000.0     -1000.0     -1000.0     -1000.0     -1000.0       99.48    
        98.94       98.28       97.52       96.67       95.72       94.68       93.66       92.64       91.64       90.66    
        89.69       88.75       87.83       86.94       86.08       85.24       84.42       83.63       82.85       82.10    
        81.37       80.66       79.97       79.29       78.63       77.99       77.36       76.74       76.13       75.54    
        74.96       74.38       73.82       73.26       72.71       72.16       71.62       71.08       70.54       70.00    
  50  -1000.0     -1000.0     -1000.0     -1000.0     -1000.0     -1000.0     -1000.0     -1000.0     -1000.0     -1000.0    
      -1000.0     -1000.0     -1000.0     -1000.0     -1000.0     -1000.0     -1000.0     -1000.0     -1000.0     -1000.0    
      -1000.0     -1000.0     -1000.0     -1000.0     -1000.0     -1000.0     -1000.0     -1000.0     -1000.0     -1000.0    
      -1000.0     -1000.0     -1000.0     -1000.0     -1000.0     -1000.0     -1000.0     -1000.0     -1000.0     -1000.0    
      -1000.0     -1000.0     -1000.0     -1000.0     -1000.0     -1000.0     -1000.0     -1000.0     -1000.0       70.00    

 HEAD WILL BE SAVED ON UNIT   51 AT END OF TIME STEP    1, STRESS PERIOD    1

 DRAWDOWN WILL BE SAVED ON UNIT   52 AT END OF TIME STEP    1, STRESS PERIOD    1
1
  VOLUMETRIC BUDGET FOR ENTIRE MODEL AT END OF TIME STEP    1, STRESS PERIOD   1
  ------------------------------------------------------------------------------

     CUMULATIVE VOLUMES      L**3       RATES FOR THIS TIME STEP      L**3/T
     ------------------                 ------------------------

           IN:                                      IN:
           ---                                      ---
             STORAGE =           0.0000               STORAGE =           0.0000
       CONSTANT HEAD =           0.0000         CONSTANT HEAD =           0.0000
               WELLS =         375.0000                 WELLS =         375.0000
       RIVER LEAKAGE =       17147.0293         RIVER LEAKAGE =       17147.0293
                  ET =           0.0000                    ET =           0.0000
            RECHARGE =       32599.9980              RECHARGE =       32599.9980

            TOTAL IN =       50122.0273              TOTAL IN =       50122.0273

          OUT:                                     OUT:
          ----                                     ----
             STORAGE =           0.0000               STORAGE =           0.0000
       CONSTANT HEAD =        8526.0137         CONSTANT HEAD =        8526.0137
               WELLS =        1500.0000                 WELLS =        1500.0000
       RIVER LEAKAGE =        3163.0874         RIVER LEAKAGE =        3163.0874
                  ET =       36932.8789                    ET =       36932.8789
            RECHARGE =           0.0000              RECHARGE =           0.0000

           TOTAL OUT =       50121.9805             TOTAL OUT =       50121.9805

            IN - OUT =       4.6875E-02              IN - OUT =       4.6875E-02

 PERCENT DISCREPANCY =           0.00     PERCENT DISCREPANCY =           0.00






         TIME SUMMARY AT END OF TIME STEP    1 IN STRESS PERIOD    1
                    SECONDS     MINUTES      HOURS       DAYS        YEARS
                    -----------------------------------------------------------
   TIME STEP LENGTH  86400.      1440.0      24.000      1.0000     2.73785E-03
 STRESS PERIOD TIME  86400.      1440.0      24.000      1.0000     2.73785E-03
         TOTAL TIME  86400.      1440.0      24.000      1.0000     2.73785E-03
1

 Run end date and time (yyyy/mm/dd hh:mm:ss): 2026/02/25  4:40:25
 Elapsed run time: 12.166 Seconds

