                                  MODFLOW-2005     
      U.S. GEOLOGICAL SURVEY MODULAR FINITE-DIFFERENCE GROUND-WATER FLOW MODEL
                            VERSION 1.12.00 2/3/2017

 LIST FILE: static_ensemble_3333133.list
                         UNIT    2

 OPENING static_ensemble_3333133.dis
 FILE TYPE:DIS   UNIT   11   STATUS:OLD    
 FORMAT:FORMATTED              ACCESS:SEQUENTIAL          

 OPENING static_ensemble_3333133.bas
 FILE TYPE:BAS6   UNIT   13   STATUS:OLD    
 FORMAT:FORMATTED              ACCESS:SEQUENTIAL          

 OPENING static_ensemble_3333133.lpf
 FILE TYPE:LPF   UNIT   15   STATUS:OLD    
 FORMAT:FORMATTED              ACCESS:SEQUENTIAL          

 OPENING static_ensemble_3333133.evt
 FILE TYPE:EVT   UNIT   22   STATUS:OLD    
 FORMAT:FORMATTED              ACCESS:SEQUENTIAL          

 OPENING static_ensemble_3333133.rch
 FILE TYPE:RCH   UNIT   19   STATUS:OLD    
 FORMAT:FORMATTED              ACCESS:SEQUENTIAL          

 OPENING static_ensemble_3333133.riv
 FILE TYPE:RIV   UNIT   18   STATUS:OLD    
 FORMAT:FORMATTED              ACCESS:SEQUENTIAL          

 OPENING static_ensemble_3333133.wel
 FILE TYPE:WEL   UNIT   20   STATUS:OLD    
 FORMAT:FORMATTED              ACCESS:SEQUENTIAL          

 OPENING static_ensemble_3333133.oc
 FILE TYPE:OC   UNIT   14   STATUS:OLD    
 FORMAT:FORMATTED              ACCESS:SEQUENTIAL          

 OPENING static_ensemble_3333133.pcg
 FILE TYPE:PCG   UNIT   27   STATUS:OLD    
 FORMAT:FORMATTED              ACCESS:SEQUENTIAL          

 OPENING static_ensemble_3333133.cbc
 FILE TYPE:DATA(BINARY)   UNIT   53   STATUS:REPLACE
 FORMAT:UNFORMATTED            ACCESS:STREAM              

 OPENING static_ensemble_3333133.hds
 FILE TYPE:DATA(BINARY)   UNIT   51   STATUS:REPLACE
 FORMAT:UNFORMATTED            ACCESS:STREAM              

 OPENING static_ensemble_3333133.ddn
 FILE TYPE:DATA(BINARY)   UNIT   52   STATUS:REPLACE
 FORMAT:UNFORMATTED            ACCESS:STREAM              

 BAS -- BASIC PACKAGE, VERSION 7, 5/2/2005 INPUT READ FROM UNIT   13
 
 MODFLOW was compiled using mixed precision
 Precision of REAL variables:           6
 Precision of DOUBLE PRECISION variables:          15

 DISCRETIZATION INPUT DATA READ FROM UNIT   11
 # DIS package for MODFLOW-2005 generated by Flopy 3.9.5
    3 LAYERS        50 ROWS        50 COLUMNS
    1 STRESS PERIOD(S) IN SIMULATION
 MODEL TIME UNIT IS DAYS
 MODEL LENGTH UNIT IS METERS
  Confining bed flag for each layer:
   0   0   0

                     DELR =   1000.00    

                     DELC =   1000.00    



           TOP ELEVATION OF LAYER 1
 READING ON UNIT   11 WITH FORMAT: (50E15.6)           



             MODEL LAYER BOTTOM EL. FOR LAYER   1
 READING ON UNIT   11 WITH FORMAT: (50E15.6)           



             MODEL LAYER BOTTOM EL. FOR LAYER   2
 READING ON UNIT   11 WITH FORMAT: (50E15.6)           



             MODEL LAYER BOTTOM EL. FOR LAYER   3
 READING ON UNIT   11 WITH FORMAT: (50E15.6)           


 STRESS PERIOD     LENGTH       TIME STEPS     MULTIPLIER FOR DELT    SS FLAG
 ----------------------------------------------------------------------------
        1         1.000000          1                    1.000         SS

 STEADY-STATE SIMULATION



 
 # BAS6 package for MODFLOW-2005 generated by Flopy 3.9.5                        
 THE FREE FORMAT OPTION HAS BEEN SELECTED



                     BOUNDARY ARRAY FOR LAYER   1
 READING ON UNIT   13 WITH FORMAT: (50I10)             



                     BOUNDARY ARRAY FOR LAYER   2
 READING ON UNIT   13 WITH FORMAT: (50I10)             



                     BOUNDARY ARRAY FOR LAYER   3
 READING ON UNIT   13 WITH FORMAT: (50I10)             

 AQUIFER HEAD WILL BE SET TO  -999.99     AT ALL NO-FLOW NODES (IBOUND=0).



                       INITIAL HEAD FOR LAYER   1
 READING ON UNIT   13 WITH FORMAT: (50E15.6)           



                       INITIAL HEAD FOR LAYER   2
 READING ON UNIT   13 WITH FORMAT: (50E15.6)           



                       INITIAL HEAD FOR LAYER   3
 READING ON UNIT   13 WITH FORMAT: (50E15.6)           
 # OC package for MODFLOW-2005 generated by Flopy 3.9.5

 OUTPUT CONTROL IS SPECIFIED ONLY AT TIME STEPS FOR WHICH OUTPUT IS DESIRED
 COMPACT CELL-BY-CELL BUDGET FILES WILL BE WRITTEN
 AUXILIARY DATA WILL BE SAVED IN CELL-BY-CELL BUDGET FILES
 HEAD PRINT FORMAT CODE IS   0    DRAWDOWN PRINT FORMAT CODE IS   0
 HEADS WILL BE SAVED ON UNIT   51    DRAWDOWNS WILL BE SAVED ON UNIT   52

 LPF -- LAYER-PROPERTY FLOW PACKAGE, VERSION 7, 5/2/2005
         INPUT READ FROM UNIT   15
 # LPF package for MODFLOW-2005 generated by Flopy 3.9.5
 CELL-BY-CELL FLOWS WILL BE SAVED ON UNIT   53
 HEAD AT CELLS THAT CONVERT TO DRY= -1.00000E+30
 No named parameters
 STORAGECOEFFICIENT OPTION:
 Read storage coefficient rather than specific storage

   LAYER FLAGS:
 LAYER       LAYTYP        LAYAVG         CHANI        LAYVKA        LAYWET
 ---------------------------------------------------------------------------
    1             1             0     1.000E+00             0             0
    2             1             0     1.000E+00             0             0
    3             1             0     1.000E+00             0             0

   INTERPRETATION OF LAYER FLAGS:
                        INTERBLOCK     HORIZONTAL    DATA IN
         LAYER TYPE   TRANSMISSIVITY   ANISOTROPY   ARRAY VKA   WETTABILITY
 LAYER      (LAYTYP)      (LAYAVG)       (CHANI)      (LAYVKA)      (LAYWET)
 ---------------------------------------------------------------------------
    1   CONVERTIBLE      HARMONIC     1.000E+00    VERTICAL K  NON-WETTABLE
    2   CONVERTIBLE      HARMONIC     1.000E+00    VERTICAL K  NON-WETTABLE
    3   CONVERTIBLE      HARMONIC     1.000E+00    VERTICAL K  NON-WETTABLE

 WETTING CAPABILITY IS NOT ACTIVE IN ANY LAYER



              HYD. COND. ALONG ROWS FOR LAYER   1
 READING ON UNIT   15 WITH FORMAT: (50E15.6)           



                VERTICAL HYD. COND. FOR LAYER   1
 READING ON UNIT   15 WITH FORMAT: (50E15.6)           



              HYD. COND. ALONG ROWS FOR LAYER   2
 READING ON UNIT   15 WITH FORMAT: (50E15.6)           



                VERTICAL HYD. COND. FOR LAYER   2
 READING ON UNIT   15 WITH FORMAT: (50E15.6)           



              HYD. COND. ALONG ROWS FOR LAYER   3
 READING ON UNIT   15 WITH FORMAT: (50E15.6)           



                VERTICAL HYD. COND. FOR LAYER   3
 READING ON UNIT   15 WITH FORMAT: (50E15.6)           

 WEL -- WELL PACKAGE, VERSION 7, 5/2/2005 INPUT READ FROM UNIT   20
 # WEL package for MODFLOW-2005 generated by Flopy 3.9.5
 No named parameters
 MAXIMUM OF      3 ACTIVE WELLS AT ONE TIME


     0 Well parameters

 RIV -- RIVER PACKAGE, VERSION 7, 5/2/2005 INPUT READ FROM UNIT   18
 # RIV package for MODFLOW-2005 generated by Flopy 3.9.5
 No named parameters
 MAXIMUM OF     49 ACTIVE RIVER REACHES AT ONE TIME
 CELL-BY-CELL FLOWS WILL BE SAVED ON UNIT   53


     0 River parameters

 EVT -- EVAPOTRANSPIRATION PACKAGE, VERSION 7, 5/2/2005
         INPUT READ FROM UNIT   22
 # EVT package for MODFLOW-2005 generated by Flopy 3.9.5
 No named parameters
 OPTION 3 -- EVAPOTRANSPIRATION FROM HIGHEST ACTIVE NODE IN EACH VERTICAL COLUMN
 CELL-BY-CELL FLOWS WILL BE SAVED ON UNIT   53


     0 Evapotranspiration parameters

 RCH -- RECHARGE PACKAGE, VERSION 7, 5/2/2005 INPUT READ FROM UNIT   19
 # RCH package for MODFLOW-2005 generated by Flopy 3.9.5
 No named parameters
 OPTION 3 -- RECHARGE TO HIGHEST ACTIVE NODE IN EACH VERTICAL COLUMN
 CELL-BY-CELL FLOWS WILL BE SAVED ON UNIT   53


     0 Recharge parameters

 PCG -- CONJUGATE-GRADIENT SOLUTION PACKAGE, VERSION 7, 5/2/2005
 # PCG package for MODFLOW-2005 generated by Flopy 3.9.5
 MAXIMUM OF   5000 CALLS OF SOLUTION ROUTINE
 MAXIMUM OF    500 INTERNAL ITERATIONS PER CALL TO SOLUTION ROUTINE
 MATRIX PRECONDITIONING TYPE :    1



                                    SOLUTION BY THE CONJUGATE-GRADIENT METHOD
                                   -------------------------------------------
                    MAXIMUM NUMBER OF CALLS TO PCG ROUTINE =     5000
                        MAXIMUM ITERATIONS PER CALL TO PCG =      500
                               MATRIX PRECONDITIONING TYPE =        1
        RELAXATION FACTOR (ONLY USED WITH PRECOND. TYPE 1) =    0.97000E+00
 PARAMETER OF POLYNOMIAL PRECOND. = 2 (2) OR IS CALCULATED :        0
                         HEAD CHANGE CRITERION FOR CLOSURE =    0.10000E-04
                     RESIDUAL CHANGE CRITERION FOR CLOSURE =    0.10000E-04
            PCG HEAD AND RESIDUAL CHANGE PRINTOUT INTERVAL =      999
     PRINTING FROM SOLVER IS LIMITED(1) OR SUPPRESSED (>1) =        3
                            STEADY-STATE DAMPING PARAMETER =    0.10000E-01
                               TRANSIENT DAMPING PARAMETER =    0.10000E-01
1
                            STRESS PERIOD NO.    1, LENGTH =   1.000000    
                            -----------------------------------------------

                              NUMBER OF TIME STEPS =     1

                               MULTIPLIER FOR DELT =     1.000

                            INITIAL TIME STEP SIZE =   1.000000    

 WELL NO.  LAYER   ROW   COL   STRESS RATE         
 --------------------------------------------------
      1      3     22     39      -1500.    
      2      1     13     15       0.000    
      3      1     25     26       375.0    

      3 WELLS

 REACH NO.  LAYER   ROW   COL     STAGE      CONDUCTANCE     BOTTOM EL.         
 -------------------------------------------------------------------------------
      1      1     25      2       100.5          0.1000E+06       98.00    
      2      1     25      3       99.50          0.1000E+06       97.00    
      3      1     25      4       98.50          0.1000E+06       96.00    
      4      1     25      5       97.50          0.1000E+06       95.00    
      5      1     25      6       96.50          0.1000E+06       94.00    
      6      1     25      7       95.50          0.1000E+06       93.00    
      7      1     25      8       94.50          0.1000E+06       92.00    
      8      1     25      9       93.50          0.1000E+06       91.00    
      9      1     25     10       92.50          0.1000E+06       90.00    
     10      1     25     11       91.50          0.1000E+06       89.00    
     11      1     25     12       90.50          0.1000E+06       88.00    
     12      1     25     13       89.50          0.1000E+06       87.00    
     13      1     25     14       88.50          0.1000E+06       86.00    
     14      1     25     15       87.50          0.1000E+06       85.00    
     15      1     25     16       86.50          0.1000E+06       84.00    
     16      1     25     17       85.50          0.1000E+06       83.00    
     17      1     25     18       84.50          0.1000E+06       82.00    
     18      1     25     19       83.50          0.1000E+06       81.00    
     19      1     25     20       82.50          0.1000E+06       80.00    
     20      1     25     21       81.50          0.1000E+06       79.00    
     21      1     25     22       80.50          0.1000E+06       78.00    
     22      1     25     23       79.50          0.1000E+06       77.00    
     23      1     25     24       78.50          0.1000E+06       76.00    
     24      1     25     25       77.50          0.1000E+06       75.00    
     25      1     25     26       77.40          0.1000E+06       74.90    
     26      1     25     27       77.30          0.1000E+06       74.80    
     27      1     25     28       77.20          0.1000E+06       74.70    
     28      1     25     29       77.10          0.1000E+06       74.60    
     29      1     25     30       77.00          0.1000E+06       74.50    
     30      1     25     31       76.90          0.1000E+06       74.40    
     31      1     25     32       76.80          0.1000E+06       74.30    
     32      1     25     33       76.70          0.1000E+06       74.20    
     33      1     25     34       76.60          0.1000E+06       74.10    
     34      1     25     35       76.50          0.1000E+06       74.00    
     35      1     25     36       76.40          0.1000E+06       73.90    
     36      1     25     37       76.30          0.1000E+06       73.80    
     37      1     25     38       76.20          0.1000E+06       73.70    
     38      1     25     39       76.10          0.1000E+06       73.60    
     39      1     25     40       76.00          0.1000E+06       73.50    
     40      1     25     41       75.90          0.1000E+06       73.40    
     41      1     25     42       75.80          0.1000E+06       73.30    
     42      1     25     43       75.70          0.1000E+06       73.20    
     43      1     25     44       75.60          0.1000E+06       73.10    
     44      1     25     45       75.50          0.1000E+06       73.00    
     45      1     25     46       75.40          0.1000E+06       72.90    
     46      1     25     47       75.30          0.1000E+06       72.80    
     47      1     25     48       75.20          0.1000E+06       72.70    
     48      1     25     49       75.10          0.1000E+06       72.60    
     49      1     25     50       75.00          0.1000E+06       72.50    

     49 RIVER REACHES



                         ET SURFACE
 READING ON UNIT   22 WITH FORMAT: (50E15.6)           



            EVAPOTRANSPIRATION RATE
 READING ON UNIT   22 WITH FORMAT: (50E15.6)           

         EXTINCTION DEPTH =   10.0000    



                           RECHARGE
 READING ON UNIT   19 WITH FORMAT: (50E15.6)           
 
 SOLVING FOR HEAD 

 OUTPUT CONTROL FOR STRESS PERIOD    1   TIME STEP    1
    SAVE HEAD FOR ALL LAYERS
    SAVE DRAWDOWN FOR ALL LAYERS
    SAVE BUDGET
    PRINT HEAD FOR ALL LAYERS
    PRINT BUDGET
 UBDSV2 SAVING "   CONSTANT HEAD" ON UNIT  53 AT TIME STEP  1, STRESS PERIOD   1
 UBDSV1 SAVING "FLOW RIGHT FACE " ON UNIT  53 AT TIME STEP  1, STRESS PERIOD   1
 UBDSV1 SAVING "FLOW FRONT FACE " ON UNIT  53 AT TIME STEP  1, STRESS PERIOD   1
 UBDSV1 SAVING "FLOW LOWER FACE " ON UNIT  53 AT TIME STEP  1, STRESS PERIOD   1
 UBDSV4 SAVING "   RIVER LEAKAGE" ON UNIT  53 AT TIME STEP  1, STRESS PERIOD   1
 UBDSV3 SAVING "              ET" ON UNIT  53 AT TIME STEP  1, STRESS PERIOD   1
 UBDSV3 SAVING "        RECHARGE" ON UNIT  53 AT TIME STEP  1, STRESS PERIOD   1
1
              HEAD IN LAYER   1 AT END OF TIME STEP   1 IN STRESS PERIOD    1
  ---------------------------------------------------------------------------

            1           2           3           4           5           6           7           8           9          10
           11          12          13          14          15          16          17          18          19          20
           21          22          23          24          25          26          27          28          29          30
           31          32          33          34          35          36          37          38          39          40
           41          42          43          44          45          46          47          48          49          50
 ........................................................................................................................
   1  -1000.0     -1000.0     -1000.0     -1000.0     -1000.0     -1000.0     -1000.0     -1000.0     -1000.0     -1000.0    
      -1000.0     -1000.0     -1000.0     -1000.0     -1000.0     -1000.0     -1000.0     -1000.0     -1000.0     -1000.0    
      -1000.0     -1000.0     -1000.0     -1000.0     -1000.0     -1000.0     -1000.0     -1000.0     -1000.0     -1000.0    
      -1000.0     -1000.0     -1000.0     -1000.0     -1000.0     -1000.0     -1000.0     -1000.0     -1000.0     -1000.0    
      -1000.0     -1000.0     -1000.0     -1000.0     -1000.0     -1000.0     -1000.0     -1000.0     -1000.0       70.00    
   2  -1000.0     -1000.0     -1000.0     -1000.0     -1000.0       87.29       87.18       86.99       86.78       86.53    
        86.32       86.07       85.79       85.48       85.14       84.79       84.42       84.03       83.64       83.24    
        82.83       82.42       82.01       81.58       81.16       80.74       80.31       79.88       79.45       79.03    
        78.60       78.17       77.74       77.30       76.87       76.44       76.00       75.56       75.12       74.67    
        74.23       73.77       73.32       72.85       72.39       71.92       71.45       70.97       70.49       70.00    
   3  -1000.0     -1000.0     -1000.0     -1000.0       87.54       87.39       87.23       87.04       86.80       86.59    
        86.36       86.10       85.81       85.50       85.16       84.80       84.43       84.04       83.65       83.25    
        82.84       82.42       82.01       81.58       81.16       80.74       80.31       79.88       79.45       79.02    
        78.59       78.17       77.73       77.30       76.87       76.44       76.00       75.56       75.12       74.67    
        74.23       73.77       73.32       72.86       72.39       71.92       71.45       70.97       70.49       70.00    
   4  -1000.0     -1000.0     -1000.0       87.82       87.67       87.50       87.32       87.10       86.90       86.67    
        86.42       86.15       85.85       85.53       85.19       84.82       84.45       84.06       83.66       83.26    
        82.85       82.43       82.01       81.59       81.16       80.73       80.31       79.88       79.45       79.02    
        78.59       78.16       77.73       77.30       76.87       76.44       76.00       75.56       75.12       74.68    
        74.23       73.78       73.32       72.86       72.39       71.92       71.45       70.97       70.49       70.00    
   5  -1000.0     -1000.0       88.10       87.96       87.80       87.62       87.42       87.22       87.00       86.76    
        86.50       86.22       85.91       85.58       85.23       84.86       84.47       84.08       83.68       83.27    
        82.86       82.44       82.01       81.59       81.16       80.73       80.30       79.87       79.44       79.01    
        78.59       78.16       77.73       77.30       76.87       76.43       76.00       75.56       75.12       74.68    
        74.23       73.78       73.32       72.86       72.40       71.93       71.45       70.97       70.49       70.00    
   6  -1000.0       88.35       88.23       88.10       87.94       87.76       87.57       87.35       87.12       86.87    
        86.60       86.30       85.98       85.64       85.28       84.90       84.51       84.11       83.70       83.29    
        82.87       82.44       82.02       81.59       81.16       80.73       80.29       79.86       79.43       79.01    
        78.58       78.15       77.72       77.29       76.86       76.43       76.00       75.56       75.13       74.68    
        74.24       73.79       73.33       72.87       72.40       71.93       71.46       70.97       70.49       70.00    
   7  -1000.0       88.45       88.37       88.26       88.10       87.92       87.72       87.50       87.26       86.99    
        86.71       86.40       86.07       85.72       85.35       84.96       84.56       84.15       83.73       83.31    
        82.88       82.45       82.02       81.59       81.15       80.72       80.29       79.85       79.42       78.99    
        78.57       78.14       77.71       77.29       76.86       76.43       76.00       75.57       75.13       74.69    
        74.24       73.79       73.34       72.88       72.41       71.94       71.46       70.98       70.49       70.00    
   8  -1000.0       88.61       88.54       88.43       88.28       88.09       87.89       87.66       87.41       87.13    
        86.83       86.51       86.17       85.80       85.42       85.02       84.61       84.19       83.76       83.33    
        82.90       82.46       82.02       81.58       81.14       80.71       80.27       79.84       79.41       78.98    
        78.55       78.13       77.70       77.28       76.85       76.43       76.00       75.57       75.14       74.70    
        74.25       73.81       73.35       72.89       72.42       71.95       71.47       70.98       70.49       70.00    
   9  -1000.0       88.80       88.75       88.62       88.47       88.29       88.08       87.84       87.57       87.29    
        86.97       86.64       86.28       85.90       85.50       85.09       84.67       84.24       83.80       83.36    
        82.91       82.47       82.02       81.58       81.13       80.69       80.26       79.82       79.39       78.96    
        78.54       78.11       77.69       77.27       76.85       76.43       76.00       75.57       75.14       74.71    
        74.27       73.82       73.37       72.90       72.44       71.96       71.48       70.99       70.50       70.00    
  10  -1000.0       89.04       88.95       88.84       88.68       88.50       88.28       88.04       87.76       87.46    
        87.13       86.78       86.41       86.01       85.60       85.17       84.73       84.29       83.84       83.38    
        82.93       82.47       82.02       81.57       81.12       80.67       80.23       79.80       79.37       78.94    
        78.51       78.09       77.67       77.26       76.84       76.42       76.00       75.58       75.15       74.72    
        74.28       73.84       73.38       72.92       72.46       71.98       71.49       71.00       70.50       70.00    
  11  -1000.0       89.25       89.18       89.07       88.92       88.74       88.51       88.25       87.97       87.65    
        87.30       86.94       86.54       86.13       85.70       85.26       84.80       84.34       83.87       83.41    
        82.94       82.47       82.01       81.55       81.10       80.65       80.20       79.77       79.33       78.91    
        78.49       78.07       77.65       77.24       76.83       76.42       76.00       75.59       75.16       74.74    
        74.30       73.86       73.41       72.95       72.48       72.00       71.51       71.01       70.51       70.00    
  12  -1000.0       89.51       89.46       89.35       89.20       89.00       88.77       88.50       88.19       87.86    
        87.49       87.11       86.69       86.26       85.81       85.35       84.87       84.39       83.91       83.43    
        82.95       82.47       82.00       81.53       81.07       80.61       80.16       79.73       79.30       78.87    
        78.45       78.04       77.63       77.22       76.82       76.41       76.01       75.59       75.18       74.76    
        74.33       73.89       73.44       72.98       72.51       72.03       71.53       71.03       70.52       70.00    
  13  -1000.0       89.83       89.77       89.66       89.50       89.30       89.05       88.76       88.44       88.09    
        87.70       87.29       86.86       86.40       85.93       85.44       84.95       84.45       83.95       83.45    
        82.95       82.46       81.97       81.49       81.02       80.57       80.12       79.68       79.25       78.83    
        78.41       78.01       77.60       77.20       76.81       76.41       76.01       75.61       75.20       74.78    
        74.36       73.92       73.48       73.02       72.55       72.06       71.56       71.05       70.53       70.00    
  14  -1000.0       90.19       90.13       90.02       89.85       89.63       89.37       89.06       88.72       88.34    
        87.93       87.49       87.03       86.55       86.06       85.54       85.02       84.50       83.98       83.46    
        82.95       82.44       81.94       81.45       80.97       80.51       80.06       79.62       79.19       78.77    
        78.36       77.96       77.57       77.18       76.79       76.40       76.01       75.62       75.22       74.81    
        74.40       73.97       73.53       73.07       72.59       72.10       71.60       71.08       70.54       70.00    
  15  -1000.0       90.61       90.54       90.42       90.24       90.00       89.72       89.39       89.02       88.61    
        88.17       87.71       87.22       86.71       86.19       85.65       85.10       84.55       84.01       83.47    
        82.93       82.40       81.89       81.39       80.90       80.43       79.98       79.54       79.12       78.71    
        78.31       77.91       77.53       77.15       76.77       76.40       76.02       75.64       75.25       74.85    
        74.45       74.03       73.59       73.13       72.66       72.16       71.64       71.11       70.56       70.00    
  16  -1000.0       91.08       91.01       90.87       90.67       90.42       90.10       89.75       89.35       88.91    
        88.44       87.94       87.42       86.88       86.32       85.75       85.18       84.60       84.03       83.46    
        82.90       82.36       81.83       81.31       80.82       80.34       79.89       79.45       79.03       78.63    
        78.24       77.86       77.48       77.12       76.76       76.39       76.03       75.66       75.29       74.90    
        74.51       74.10       73.66       73.21       72.74       72.23       71.71       71.15       70.58       70.00    
  17  -1000.0       91.61       91.53       91.38       91.16       90.87       90.53       90.14       89.70       89.23    
        88.72       88.19       87.63       87.05       86.46       85.85       85.25       84.64       84.04       83.44    
        82.86       82.29       81.74       81.21       80.71       80.23       79.77       79.34       78.93       78.53    
        78.15       77.79       77.43       77.08       76.73       76.39       76.04       75.69       75.33       74.96    
        74.58       74.18       73.76       73.31       72.84       72.33       71.79       71.21       70.62       70.00    
  18  -1000.0       92.21       92.12       91.95       91.70       91.38       91.00       90.57       90.09       89.57    
        89.02       88.45       87.85       87.23       86.60       85.96       85.31       84.67       84.04       83.41    
        82.80       82.20       81.63       81.09       80.57       80.08       79.63       79.20       78.80       78.42    
        78.06       77.71       77.37       77.04       76.71       76.38       76.05       75.72       75.38       75.03    
        74.67       74.29       73.88       73.44       72.97       72.45       71.89       71.29       70.66       70.00    
  19  -1000.0       92.88       92.78       92.58       92.30       91.93       91.51       91.03       90.50       89.94    
        89.34       88.72       88.08       87.41       86.74       86.06       85.37       84.69       84.02       83.36    
        82.71       82.09       81.49       80.93       80.40       79.91       79.46       79.04       78.65       78.29    
        77.94       77.62       77.30       76.99       76.68       76.38       76.07       75.76       75.44       75.12    
        74.78       74.41       74.02       73.60       73.13       72.61       72.04       71.41       70.72       70.00    
  20  -1000.0       93.65       93.53       93.29       92.96       92.54       92.06       91.52       90.94       90.32    
        89.67       89.00       88.31       87.60       86.88       86.15       85.42       84.70       83.98       83.28    
        82.60       81.94       81.31       80.73       80.19       79.69       79.25       78.84       78.48       78.13    
        77.82       77.51       77.22       76.94       76.65       76.37       76.09       75.80       75.51       75.21    
        74.90       74.57       74.20       73.80       73.34       72.83       72.24       71.56       70.81       70.00    
  21  -1000.0       94.53       94.37       94.09       93.69       93.21       92.66       92.05       91.41       90.73    
        90.02       89.29       88.54       87.79       87.02       86.24       85.46       84.69       83.93       83.18    
        82.46       81.75       81.09       80.48       79.92       79.43       78.99       78.61       78.27       77.96    
        77.67       77.39       77.13       76.88       76.62       76.37       76.12       75.85       75.58       75.32    
        75.05       74.75       74.42       74.05       73.62       73.11       72.51       71.79       70.95       70.00    
  22  -1000.0       95.54       95.34       94.98       94.50       93.93       93.30       92.61       91.89       91.14    
        90.37       89.58       88.78       87.97       87.15       86.32       85.49       84.67       83.86       83.06    
        82.28       81.53       80.81       80.16       79.58       79.10       78.69       78.34       78.03       77.76    
        77.50       77.27       77.04       76.81       76.59       76.37       76.15       75.91       75.63       75.45    
        75.22       74.96       74.68       74.34       73.96       73.49       72.90       72.14       71.17       70.00    
  23  -1000.0       96.73       96.45       95.98       95.38       94.70       93.97       93.20       92.39       91.57    
        90.73       89.88       89.02       88.15       87.27       86.39       85.51       84.63       83.77       82.91    
        82.07       81.25       80.47       79.76       79.15       78.68       78.32       78.02       77.76       77.54    
        77.32       77.13       76.93       76.75       76.56       76.38       76.19       76.00       75.80       75.61    
        75.42       75.21       74.97       74.70       74.38       73.97       73.44       72.69       71.58       70.00    
  24  -1000.0       98.18       97.74       97.08       96.33       95.51       94.66       93.79       92.90       92.00    
        91.09       90.17       89.24       88.31       87.38       86.45       85.51       84.58       83.65       82.73    
        81.82       80.93       80.06       79.25       78.57       78.16       77.88       77.66       77.47       77.29    
        77.13       76.98       76.83       76.68       76.53       76.39       76.24       76.09       75.94       75.79    
        75.64       75.48       75.30       75.10       74.87       74.58       74.19       73.58       72.44       70.00    
  25  -1000.0       100.0       99.20       98.27       97.31       96.34       95.37       94.39       93.41       92.42    
        91.44       90.45       89.46       88.47       87.48       86.49       85.50       84.51       83.52       82.53    
        81.55       80.56       79.58       78.61       77.69       77.51       77.38       77.26       77.15       77.04    
        76.93       76.82       76.72       76.61       76.50       76.40       76.29       76.19       76.08       75.97    
        75.87       75.76       75.65       75.53       75.42       75.29       75.15       74.97       74.51       70.00    
  26  -1000.0       98.17       97.73       97.07       96.32       95.50       94.65       93.78       92.89       91.99    
        91.08       90.16       89.24       88.31       87.38       86.44       85.51       84.58       83.65       82.73    
        81.82       80.92       80.06       79.25       78.56       78.16       77.88       77.66       77.47       77.29    
        77.13       76.98       76.83       76.68       76.54       76.40       76.25       76.11       75.96       75.81    
        75.65       75.48       75.30       75.10       74.87       74.58       74.19       73.58       72.44       70.00    
  27  -1000.0       96.71       96.43       95.96       95.36       94.68       93.95       93.17       92.37       91.55    
        90.71       89.86       89.00       88.13       87.25       86.37       85.50       84.62       83.76       82.90    
        82.06       81.25       80.47       79.76       79.15       78.68       78.32       78.02       77.76       77.53    
        77.32       77.13       76.94       76.75       76.57       76.39       76.21       76.03       75.84       75.65    
        75.44       75.22       74.98       74.70       74.38       73.97       73.44       72.69       71.58       70.00    
  28  -1000.0       95.51       95.31       94.95       94.47       93.90       93.27       92.58       91.86       91.11    
        90.34       89.56       88.76       87.94       87.12       86.30       85.47       84.66       83.85       83.05    
        82.27       81.52       80.81       80.16       79.58       79.09       78.68       78.34       78.03       77.76    
        77.50       77.27       77.04       76.82       76.60       76.39       76.17       75.96       75.73       75.50    
        75.25       74.98       74.69       74.35       73.96       73.49       72.90       72.14       71.17       70.00    
  29  -1000.0       94.48       94.33       94.05       93.65       93.17       92.62       92.01       91.37       90.69    
        89.98       89.25       88.51       87.75       86.99       86.21       85.44       84.67       83.91       83.17    
        82.44       81.74       81.08       80.47       79.91       79.42       78.99       78.61       78.26       77.95    
        77.66       77.39       77.13       76.88       76.63       76.39       76.14       75.89       75.63       75.36    
        75.08       74.77       74.43       74.05       73.62       73.11       72.51       71.79       70.95       70.00    
  30  -1000.0       93.59       93.47       93.24       92.91       92.49       92.01       91.47       90.89       90.27    
        89.63       88.96       88.26       87.56       86.84       86.12       85.39       84.67       83.96       83.26    
        82.58       81.92       81.30       80.71       80.17       79.68       79.24       78.83       78.47       78.13    
        77.81       77.51       77.22       76.94       76.66       76.39       76.11       75.83       75.54       75.24    
        74.92       74.58       74.21       73.81       73.35       72.83       72.24       71.56       70.81       70.00    
  31  -1000.0       92.81       92.71       92.52       92.23       91.87       91.45       90.97       90.44       89.88    
        89.28       88.66       88.02       87.37       86.69       86.01       85.33       84.65       83.98       83.32    
        82.68       82.06       81.47       80.90       80.38       79.89       79.44       79.02       78.64       78.28    
        77.93       77.61       77.29       76.99       76.69       76.39       76.08       75.78       75.46       75.14    
        74.79       74.43       74.03       73.61       73.14       72.62       72.04       71.41       70.72       70.00    
  32  -1000.0       92.13       92.04       91.87       91.62       91.30       90.92       90.49       90.02       89.50    
        88.96       88.38       87.79       87.17       86.54       85.91       85.26       84.62       83.99       83.37    
        82.76       82.17       81.60       81.06       80.54       80.06       79.61       79.18       78.78       78.40    
        78.04       77.70       77.36       77.03       76.71       76.39       76.06       75.73       75.40       75.05    
        74.68       74.30       73.89       73.45       72.97       72.45       71.90       71.30       70.66       70.00    
  33  -1000.0       91.51       91.44       91.29       91.07       90.79       90.45       90.06       89.62       89.15    
        88.65       88.11       87.56       86.99       86.40       85.79       85.19       84.59       83.99       83.39    
        82.81       82.25       81.70       81.18       80.67       80.20       79.74       79.31       78.90       78.51    
        78.14       77.77       77.42       77.07       76.73       76.39       76.04       75.69       75.34       74.97    
        74.59       74.19       73.76       73.32       72.84       72.33       71.79       71.21       70.62       70.00    
  34  -1000.0       90.97       90.90       90.77       90.57       90.32       90.01       89.65       89.26       88.82    
        88.35       87.86       87.34       86.80       86.25       85.68       85.11       84.54       83.97       83.41    
        82.85       82.31       81.78       81.27       80.78       80.31       79.85       79.42       79.00       78.60    
        78.21       77.84       77.47       77.11       76.75       76.39       76.03       75.66       75.29       74.91    
        74.51       74.10       73.67       73.21       72.74       72.23       71.71       71.15       70.58       70.00    
  35  -1000.0       90.49       90.42       90.30       90.12       89.89       89.61       89.28       88.92       88.51    
        88.08       87.62       87.13       86.63       86.11       85.57       85.03       84.48       83.94       83.40    
        82.87       82.35       81.84       81.34       80.86       80.39       79.94       79.51       79.09       78.68    
        78.28       77.89       77.51       77.14       76.76       76.39       76.01       75.63       75.25       74.85    
        74.45       74.03       73.59       73.13       72.66       72.16       71.64       71.11       70.56       70.00    
  36  -1000.0       90.05       90.00       89.89       89.72       89.51       89.25       88.94       88.60       88.23    
        87.82       87.39       86.94       86.46       85.97       85.46       84.94       84.43       83.91       83.39    
        82.88       82.38       81.88       81.40       80.92       80.46       80.01       79.58       79.15       78.74    
        78.34       77.94       77.55       77.16       76.78       76.39       76.00       75.61       75.22       74.81    
        74.39       73.97       73.52       73.07       72.59       72.10       71.60       71.07       70.54       70.00    
  37  -1000.0       89.67       89.62       89.51       89.36       89.16       88.92       88.64       88.32       87.97    
        87.59       87.18       86.75       86.30       85.83       85.35       84.86       84.36       83.87       83.37    
        82.88       82.39       81.91       81.43       80.97       80.51       80.07       79.63       79.21       78.79    
        78.38       77.98       77.58       77.18       76.79       76.39       76.00       75.59       75.19       74.77    
        74.35       73.92       73.47       73.02       72.54       72.06       71.56       71.05       70.53       70.00    
  38  -1000.0       89.34       89.29       89.19       89.04       88.85       88.62       88.36       88.06       87.73    
        87.37       86.99       86.58       86.15       85.71       85.24       84.78       84.30       83.82       83.35    
        82.87       82.40       81.93       81.46       81.01       80.56       80.11       79.68       79.25       78.83    
        78.42       78.01       77.60       77.20       76.80       76.39       75.99       75.58       75.17       74.75    
        74.32       73.88       73.43       72.97       72.50       72.02       71.53       71.03       70.52       70.00    
  39  -1000.0       89.05       88.99       88.89       88.75       88.57       88.36       88.10       87.82       87.51    
        87.17       86.81       86.42       86.01       85.59       85.14       84.69       84.24       83.78       83.32    
        82.85       82.39       81.94       81.48       81.03       80.59       80.15       79.71       79.29       78.87    
        78.45       78.03       77.62       77.21       76.81       76.40       75.98       75.57       75.15       74.72    
        74.29       73.85       73.40       72.94       72.47       71.99       71.51       71.01       70.51       70.00    
  40  -1000.0       88.80       88.74       88.64       88.50       88.32       88.12       87.88       87.61       87.31    
        86.99       86.64       86.27       85.88       85.47       85.05       84.62       84.18       83.73       83.29    
        82.84       82.39       81.94       81.49       81.05       80.61       80.17       79.74       79.31       78.89    
        78.47       78.06       77.64       77.23       76.81       76.40       75.98       75.56       75.14       74.71    
        74.27       73.83       73.37       72.92       72.45       71.97       71.49       71.00       70.50       70.00    
  41  -1000.0       88.61       88.53       88.42       88.28       88.10       87.90       87.67       87.41       87.13    
        86.82       86.49       86.14       85.76       85.37       84.96       84.55       84.12       83.69       83.25    
        82.82       82.38       81.94       81.50       81.06       80.62       80.19       79.76       79.34       78.91    
        78.49       78.07       77.65       77.24       76.82       76.40       75.98       75.55       75.12       74.69    
        74.25       73.81       73.35       72.90       72.43       71.96       71.48       70.99       70.50       70.00    
  42  -1000.0       88.39       88.34       88.22       88.08       87.90       87.71       87.48       87.24       86.96    
        86.67       86.35       86.01       85.65       85.28       84.88       84.48       84.07       83.65       83.22    
        82.79       82.36       81.93       81.50       81.07       80.64       80.21       79.78       79.35       78.93    
        78.51       78.08       77.66       77.24       76.82       76.40       75.97       75.55       75.11       74.68    
        74.24       73.79       73.34       72.88       72.41       71.94       71.46       70.98       70.49       70.00    
  43  -1000.0       88.21       88.15       88.04       87.90       87.72       87.53       87.32       87.08       86.82    
        86.53       86.23       85.90       85.56       85.19       84.81       84.42       84.02       83.61       83.19    
        82.77       82.35       81.92       81.50       81.07       80.64       80.22       79.79       79.36       78.94    
        78.52       78.10       77.67       77.25       76.83       76.40       75.97       75.54       75.11       74.67    
        74.23       73.78       73.33       72.87       72.40       71.93       71.46       70.98       70.49       70.00    
  44  -1000.0       88.06       87.99       87.88       87.73       87.56       87.37       87.16       86.94       86.69    
        86.41       86.12       85.81       85.47       85.12       84.75       84.36       83.97       83.57       83.16    
        82.75       82.33       81.92       81.49       81.07       80.65       80.22       79.80       79.37       78.95    
        78.53       78.10       77.68       77.25       76.83       76.40       75.97       75.54       75.10       74.66    
        74.22       73.77       73.32       72.86       72.39       71.92       71.45       70.97       70.49       70.00    
  45  -1000.0       87.96       87.86       87.73       87.58       87.41       87.23       87.03       86.81       86.57    
        86.31       86.03       85.72       85.40       85.05       84.69       84.32       83.93       83.54       83.14    
        82.73       82.32       81.91       81.49       81.07       80.65       80.23       79.80       79.38       78.96    
        78.53       78.11       77.68       77.26       76.83       76.40       75.97       75.54       75.10       74.66    
        74.21       73.76       73.31       72.85       72.39       71.92       71.44       70.97       70.49       70.00    
  46  -1000.0     -1000.0       87.73       87.60       87.45       87.28       87.09       86.90       86.69       86.47    
        86.22       85.95       85.65       85.34       85.00       84.65       84.28       83.90       83.51       83.12    
        82.72       82.31       81.90       81.49       81.07       80.65       80.23       79.81       79.38       78.96    
        78.54       78.11       77.69       77.26       76.83       76.40       75.97       75.53       75.10       74.65    
        74.21       73.76       73.30       72.84       72.38       71.91       71.44       70.96       70.48       70.00    
  47  -1000.0     -1000.0     -1000.0       87.47       87.33       87.17       86.99       86.79       86.59       86.38    
        86.14       85.88       85.60       85.29       84.96       84.61       84.25       83.88       83.49       83.10    
        82.71       82.30       81.89       81.48       81.07       80.65       80.23       79.81       79.39       78.97    
        78.54       78.12       77.69       77.26       76.83       76.40       75.97       75.53       75.09       74.65    
        74.20       73.75       73.30       72.84       72.38       71.91       71.44       70.96       70.48       70.00    
  48  -1000.0     -1000.0     -1000.0     -1000.0       87.20       87.07       86.91       86.73       86.50       86.30    
        86.08       85.83       85.56       85.26       84.93       84.59       84.23       83.86       83.48       83.09    
        82.70       82.30       81.89       81.48       81.07       80.65       80.23       79.81       79.39       78.97    
        78.54       78.12       77.69       77.26       76.83       76.40       75.97       75.53       75.09       74.65    
        74.20       73.75       73.30       72.84       72.38       71.91       71.44       70.96       70.48       70.00    
  49  -1000.0     -1000.0     -1000.0     -1000.0     -1000.0       86.97       86.86       86.69       86.48       86.24    
        86.05       85.81       85.54       85.24       84.92       84.58       84.22       83.85       83.47       83.09    
        82.69       82.29       81.89       81.48       81.07       80.65       80.23       79.81       79.39       78.97    
        78.54       78.12       77.69       77.26       76.83       76.40       75.97       75.53       75.09       74.65    
        74.20       73.75       73.30       72.84       72.37       71.91       71.44       70.96       70.48       70.00    
  50  -1000.0     -1000.0     -1000.0     -1000.0     -1000.0     -1000.0     -1000.0     -1000.0     -1000.0     -1000.0    
      -1000.0     -1000.0     -1000.0     -1000.0     -1000.0     -1000.0     -1000.0     -1000.0     -1000.0     -1000.0    
      -1000.0     -1000.0     -1000.0     -1000.0     -1000.0     -1000.0     -1000.0     -1000.0     -1000.0     -1000.0    
      -1000.0     -1000.0     -1000.0     -1000.0     -1000.0     -1000.0     -1000.0     -1000.0     -1000.0     -1000.0    
      -1000.0     -1000.0     -1000.0     -1000.0     -1000.0     -1000.0     -1000.0     -1000.0     -1000.0       70.00    
1
              HEAD IN LAYER   2 AT END OF TIME STEP   1 IN STRESS PERIOD    1
  ---------------------------------------------------------------------------

            1           2           3           4           5           6           7           8           9          10
           11          12          13          14          15          16          17          18          19          20
           21          22          23          24          25          26          27          28          29          30
           31          32          33          34          35          36          37          38          39          40
           41          42          43          44          45          46          47          48          49          50
 ........................................................................................................................
   1  -1000.0     -1000.0     -1000.0     -1000.0     -1000.0     -1000.0     -1000.0     -1000.0     -1000.0     -1000.0    
      -1000.0     -1000.0     -1000.0     -1000.0     -1000.0     -1000.0     -1000.0     -1000.0     -1000.0     -1000.0    
      -1000.0     -1000.0     -1000.0     -1000.0     -1000.0     -1000.0     -1000.0     -1000.0     -1000.0     -1000.0    
      -1000.0     -1000.0     -1000.0     -1000.0     -1000.0     -1000.0     -1000.0     -1000.0     -1000.0     -1000.0    
      -1000.0     -1000.0     -1000.0     -1000.0     -1000.0     -1000.0     -1000.0     -1000.0     -1000.0       70.00    
   2  -1000.0     -1000.0     -1000.0     -1000.0     -1000.0     -1000.0     -1000.0       86.99       86.78       86.53    
        86.32       86.07       85.79       85.48       85.14       84.79       84.42       84.03       83.64       83.24    
        82.83       82.42       82.01       81.58       81.16       80.74       80.31       79.88       79.45       79.03    
        78.60       78.17       77.74       77.30       76.87       76.44       76.00       75.56       75.12       74.67    
        74.23       73.77       73.32       72.85       72.39       71.92       71.45       70.97       70.49       70.00    
   3  -1000.0     -1000.0     -1000.0     -1000.0     -1000.0     -1000.0       87.23       87.04       86.80       86.59    
        86.36       86.10       85.81       85.50       85.16       84.80       84.43       84.04       83.65       83.25    
        82.84       82.42       82.01       81.58       81.16       80.74       80.31       79.88       79.45       79.02    
        78.59       78.17       77.73       77.30       76.87       76.44       76.00       75.56       75.12       74.67    
        74.23       73.77       73.32       72.86       72.39       71.92       71.45       70.97       70.49       70.00    
   4  -1000.0     -1000.0     -1000.0     -1000.0     -1000.0       87.50       87.32       87.10       86.90       86.67    
        86.42       86.15       85.85       85.53       85.19       84.82       84.45       84.06       83.66       83.26    
        82.85       82.43       82.01       81.59       81.16       80.73       80.31       79.88       79.45       79.02    
        78.59       78.16       77.73       77.30       76.87       76.44       76.00       75.56       75.12       74.68    
        74.23       73.78       73.32       72.86       72.39       71.92       71.45       70.97       70.49       70.00    
   5  -1000.0     -1000.0     -1000.0     -1000.0       87.80       87.62       87.42       87.22       87.00       86.76    
        86.50       86.22       85.91       85.58       85.23       84.86       84.47       84.08       83.68       83.27    
        82.86       82.44       82.01       81.59       81.16       80.73       80.30       79.87       79.44       79.01    
        78.59       78.16       77.73       77.30       76.87       76.43       76.00       75.56       75.12       74.68    
        74.23       73.78       73.32       72.86       72.40       71.93       71.45       70.97       70.49       70.00    
   6  -1000.0     -1000.0     -1000.0       88.10       87.94       87.76       87.57       87.35       87.12       86.87    
        86.60       86.30       85.98       85.64       85.28       84.90       84.51       84.11       83.70       83.29    
        82.87       82.44       82.02       81.59       81.16       80.73       80.29       79.86       79.43       79.01    
        78.58       78.15       77.72       77.29       76.86       76.43       76.00       75.56       75.13       74.68    
        74.24       73.79       73.33       72.87       72.40       71.93       71.46       70.97       70.49       70.00    
   7  -1000.0     -1000.0       88.37       88.26       88.10       87.92       87.72       87.50       87.26       86.99    
        86.71       86.40       86.07       85.72       85.35       84.96       84.56       84.15       83.73       83.31    
        82.88       82.45       82.02       81.59       81.15       80.72       80.29       79.85       79.42       78.99    
        78.57       78.14       77.71       77.29       76.86       76.43       76.00       75.57       75.13       74.69    
        74.24       73.79       73.34       72.88       72.41       71.94       71.46       70.98       70.49       70.00    
   8  -1000.0       88.61       88.54       88.43       88.28       88.09       87.89       87.66       87.41       87.13    
        86.83       86.51       86.17       85.80       85.42       85.02       84.61       84.19       83.76       83.33    
        82.90       82.46       82.02       81.58       81.14       80.71       80.27       79.84       79.41       78.98    
        78.55       78.13       77.70       77.28       76.85       76.43       76.00       75.57       75.14       74.70    
        74.25       73.81       73.35       72.89       72.42       71.95       71.47       70.98       70.49       70.00    
   9  -1000.0       88.80       88.75       88.62       88.47       88.29       88.08       87.84       87.57       87.29    
        86.97       86.64       86.28       85.90       85.50       85.09       84.67       84.24       83.80       83.36    
        82.91       82.47       82.02       81.58       81.13       80.69       80.26       79.82       79.39       78.96    
        78.54       78.11       77.69       77.27       76.85       76.43       76.00       75.57       75.14       74.71    
        74.27       73.82       73.37       72.90       72.44       71.96       71.48       70.99       70.50       70.00    
  10  -1000.0       89.04       88.95       88.84       88.68       88.50       88.28       88.04       87.76       87.46    
        87.13       86.78       86.41       86.01       85.60       85.17       84.73       84.29       83.84       83.38    
        82.93       82.47       82.02       81.57       81.12       80.67       80.23       79.80       79.37       78.94    
        78.51       78.09       77.67       77.26       76.84       76.42       76.00       75.58       75.15       74.72    
        74.28       73.84       73.38       72.92       72.46       71.98       71.49       71.00       70.50       70.00    
  11  -1000.0       89.25       89.18       89.07       88.92       88.74       88.51       88.25       87.97       87.65    
        87.30       86.94       86.54       86.13       85.70       85.26       84.80       84.34       83.87       83.41    
        82.94       82.47       82.01       81.55       81.10       80.65       80.20       79.77       79.33       78.91    
        78.49       78.07       77.65       77.24       76.83       76.42       76.00       75.59       75.16       74.74    
        74.30       73.86       73.41       72.95       72.48       72.00       71.51       71.01       70.51       70.00    
  12  -1000.0       89.51       89.46       89.35       89.20       89.00       88.77       88.50       88.19       87.86    
        87.49       87.11       86.69       86.26       85.81       85.35       84.87       84.39       83.91       83.43    
        82.95       82.47       82.00       81.53       81.07       80.61       80.16       79.73       79.30       78.87    
        78.45       78.04       77.63       77.22       76.82       76.41       76.01       75.59       75.18       74.76    
        74.33       73.89       73.44       72.98       72.51       72.03       71.53       71.03       70.52       70.00    
  13  -1000.0       89.83       89.77       89.66       89.50       89.30       89.05       88.76       88.44       88.09    
        87.70       87.29       86.86       86.40       85.93       85.44       84.95       84.45       83.95       83.45    
        82.95       82.46       81.97       81.49       81.02       80.57       80.12       79.68       79.25       78.83    
        78.41       78.01       77.60       77.20       76.81       76.41       76.01       75.61       75.20       74.78    
        74.36       73.92       73.48       73.02       72.55       72.06       71.56       71.05       70.53       70.00    
  14  -1000.0       90.19       90.13       90.02       89.85       89.63       89.37       89.06       88.72       88.34    
        87.93       87.49       87.03       86.55       86.06       85.54       85.02       84.50       83.98       83.46    
        82.95       82.44       81.94       81.45       80.97       80.51       80.06       79.62       79.19       78.77    
        78.36       77.96       77.57       77.18       76.79       76.40       76.01       75.62       75.22       74.81    
        74.40       73.97       73.53       73.07       72.59       72.10       71.60       71.08       70.54       70.00    
  15  -1000.0       90.61       90.54       90.42       90.24       90.00       89.72       89.39       89.02       88.61    
        88.17       87.71       87.22       86.71       86.19       85.65       85.10       84.55       84.01       83.47    
        82.93       82.40       81.89       81.39       80.90       80.43       79.98       79.54       79.12       78.71    
        78.31       77.91       77.53       77.15       76.77       76.40       76.02       75.64       75.25       74.85    
        74.45       74.03       73.59       73.13       72.66       72.16       71.64       71.11       70.56       70.00    
  16  -1000.0       91.08       91.01       90.87       90.67       90.42       90.10       89.75       89.35       88.91    
        88.44       87.94       87.42       86.88       86.32       85.75       85.18       84.60       84.03       83.46    
        82.90       82.36       81.83       81.31       80.82       80.34       79.89       79.45       79.03       78.63    
        78.24       77.86       77.48       77.12       76.76       76.39       76.03       75.66       75.29       74.90    
        74.51       74.10       73.66       73.21       72.74       72.23       71.71       71.15       70.58       70.00    
  17  -1000.0       91.61       91.53       91.38       91.16       90.87       90.53       90.14       89.70       89.23    
        88.72       88.19       87.63       87.05       86.46       85.85       85.25       84.64       84.04       83.44    
        82.86       82.29       81.74       81.21       80.71       80.23       79.77       79.34       78.93       78.53    
        78.15       77.79       77.43       77.08       76.73       76.39       76.04       75.69       75.33       74.96    
        74.58       74.18       73.76       73.31       72.84       72.33       71.79       71.21       70.62       70.00    
  18  -1000.0       92.21       92.12       91.95       91.70       91.38       91.00       90.57       90.09       89.57    
        89.02       88.45       87.85       87.23       86.60       85.96       85.31       84.67       84.04       83.41    
        82.80       82.20       81.63       81.09       80.57       80.08       79.63       79.20       78.80       78.42    
        78.06       77.71       77.37       77.04       76.71       76.38       76.05       75.72       75.38       75.03    
        74.67       74.29       73.88       73.44       72.97       72.45       71.89       71.29       70.66       70.00    
  19  -1000.0       92.88       92.78       92.58       92.30       91.93       91.51       91.03       90.50       89.94    
        89.34       88.72       88.08       87.41       86.74       86.06       85.37       84.69       84.02       83.36    
        82.71       82.09       81.49       80.93       80.40       79.91       79.46       79.04       78.65       78.29    
        77.94       77.62       77.30       76.99       76.68       76.38       76.07       75.76       75.44       75.12    
        74.78       74.41       74.02       73.60       73.13       72.61       72.04       71.41       70.72       70.00    
  20  -1000.0       93.65       93.53       93.29       92.96       92.54       92.06       91.52       90.94       90.32    
        89.67       89.00       88.31       87.60       86.88       86.15       85.42       84.70       83.98       83.28    
        82.60       81.94       81.31       80.73       80.19       79.69       79.25       78.84       78.48       78.13    
        77.82       77.51       77.22       76.94       76.65       76.37       76.09       75.80       75.51       75.21    
        74.90       74.57       74.20       73.80       73.34       72.83       72.24       71.56       70.81       70.00    
  21  -1000.0       94.53       94.37       94.09       93.69       93.21       92.66       92.05       91.41       90.73    
        90.02       89.29       88.54       87.79       87.02       86.24       85.46       84.69       83.93       83.18    
        82.46       81.75       81.09       80.48       79.92       79.43       78.99       78.61       78.27       77.96    
        77.67       77.39       77.13       76.88       76.62       76.37       76.12       75.85       75.58       75.32    
        75.05       74.75       74.42       74.05       73.62       73.11       72.51       71.79       70.95       70.00    
  22  -1000.0       95.54       95.34       94.98       94.50       93.93       93.30       92.61       91.89       91.14    
        90.37       89.58       88.78       87.97       87.15       86.32       85.49       84.67       83.86       83.06    
        82.28       81.53       80.81       80.16       79.58       79.10       78.69       78.34       78.03       77.76    
        77.50       77.27       77.04       76.81       76.59       76.37       76.15       75.91       75.63       75.45    
        75.22       74.96       74.68       74.34       73.96       73.49       72.90       72.14       71.17       70.00    
  23  -1000.0       96.73       96.45       95.98       95.38       94.70       93.97       93.20       92.39       91.57    
        90.73       89.88       89.02       88.15       87.27       86.39       85.51       84.63       83.77       82.91    
        82.07       81.25       80.47       79.76       79.15       78.68       78.32       78.02       77.76       77.54    
        77.32       77.13       76.93       76.75       76.56       76.38       76.19       76.00       75.80       75.61    
        75.42       75.21       74.97       74.70       74.38       73.97       73.44       72.69       71.58       70.00    
  24  -1000.0       98.18       97.74       97.08       96.33       95.51       94.66       93.79       92.90       92.00    
        91.09       90.17       89.24       88.31       87.38       86.45       85.51       84.58       83.65       82.73    
        81.82       80.93       80.06       79.25       78.57       78.16       77.88       77.66       77.47       77.29    
        77.13       76.98       76.83       76.68       76.53       76.39       76.24       76.09       75.94       75.79    
        75.64       75.48       75.30       75.10       74.87       74.58       74.19       73.58       72.44       70.00    
  25  -1000.0       100.0       99.20       98.26       97.31       96.34       95.37       94.39       93.41       92.42    
        91.44       90.45       89.46       88.47       87.48       86.49       85.50       84.51       83.52       82.53    
        81.55       80.56       79.58       78.61       77.69       77.51       77.38       77.26       77.15       77.04    
        76.93       76.82       76.72       76.61       76.50       76.40       76.29       76.19       76.08       75.97    
        75.87       75.76       75.65       75.53       75.42       75.29       75.15       74.97       74.50       70.00    
  26  -1000.0       98.17       97.73       97.07       96.32       95.50       94.65       93.78       92.89       91.99    
        91.08       90.16       89.24       88.31       87.38       86.44       85.51       84.58       83.65       82.73    
        81.82       80.92       80.06       79.25       78.56       78.16       77.88       77.66       77.47       77.29    
        77.13       76.98       76.83       76.68       76.54       76.40       76.25       76.11       75.96       75.81    
        75.65       75.48       75.30       75.10       74.87       74.58       74.19       73.58       72.44       70.00    
  27  -1000.0       96.71       96.43       95.96       95.36       94.68       93.95       93.17       92.37       91.55    
        90.71       89.86       89.00       88.13       87.25       86.37       85.50       84.62       83.76       82.90    
        82.06       81.25       80.47       79.76       79.15       78.68       78.32       78.02       77.76       77.53    
        77.32       77.13       76.94       76.75       76.57       76.39       76.21       76.03       75.84       75.65    
        75.44       75.22       74.98       74.70       74.38       73.97       73.44       72.69       71.58       70.00    
  28  -1000.0       95.51       95.31       94.95       94.47       93.90       93.27       92.58       91.86       91.11    
        90.34       89.56       88.76       87.94       87.12       86.30       85.47       84.66       83.85       83.05    
        82.27       81.52       80.81       80.16       79.58       79.09       78.68       78.34       78.03       77.76    
        77.50       77.27       77.04       76.82       76.60       76.39       76.17       75.96       75.73       75.50    
        75.25       74.98       74.69       74.35       73.96       73.49       72.90       72.14       71.17       70.00    
  29  -1000.0       94.48       94.33       94.05       93.65       93.17       92.62       92.01       91.37       90.69    
        89.98       89.25       88.51       87.75       86.99       86.21       85.44       84.67       83.91       83.17    
        82.44       81.74       81.08       80.47       79.91       79.42       78.99       78.61       78.26       77.95    
        77.66       77.39       77.13       76.88       76.63       76.39       76.14       75.89       75.63       75.36    
        75.08       74.77       74.43       74.05       73.62       73.11       72.51       71.79       70.95       70.00    
  30  -1000.0       93.59       93.47       93.24       92.91       92.49       92.01       91.47       90.89       90.27    
        89.63       88.96       88.26       87.56       86.84       86.12       85.39       84.67       83.96       83.26    
        82.58       81.92       81.30       80.71       80.17       79.68       79.24       78.83       78.47       78.13    
        77.81       77.51       77.22       76.94       76.66       76.39       76.11       75.83       75.54       75.24    
        74.92       74.58       74.21       73.81       73.35       72.83       72.24       71.56       70.81       70.00    
  31  -1000.0       92.81       92.71       92.52       92.23       91.87       91.45       90.97       90.44       89.88    
        89.28       88.66       88.02       87.37       86.69       86.01       85.33       84.65       83.98       83.32    
        82.68       82.06       81.47       80.90       80.38       79.89       79.44       79.02       78.64       78.28    
        77.93       77.61       77.29       76.99       76.69       76.39       76.08       75.78       75.46       75.14    
        74.79       74.43       74.03       73.61       73.14       72.62       72.04       71.41       70.72       70.00    
  32  -1000.0       92.13       92.04       91.87       91.62       91.30       90.92       90.49       90.02       89.50    
        88.96       88.38       87.79       87.17       86.54       85.91       85.26       84.62       83.99       83.37    
        82.76       82.17       81.60       81.06       80.54       80.06       79.61       79.18       78.78       78.40    
        78.04       77.70       77.36       77.03       76.71       76.39       76.06       75.73       75.40       75.05    
        74.68       74.30       73.89       73.45       72.97       72.45       71.90       71.30       70.66       70.00    
  33  -1000.0       91.51       91.44       91.29       91.07       90.79       90.45       90.06       89.62       89.15    
        88.65       88.11       87.56       86.99       86.40       85.79       85.19       84.59       83.99       83.39    
        82.81       82.25       81.70       81.18       80.67       80.20       79.74       79.31       78.90       78.51    
        78.14       77.77       77.42       77.07       76.73       76.39       76.04       75.69       75.34       74.97    
        74.59       74.19       73.76       73.32       72.84       72.33       71.79       71.21       70.62       70.00    
  34  -1000.0       90.97       90.90       90.77       90.57       90.32       90.01       89.65       89.26       88.82    
        88.35       87.86       87.34       86.80       86.25       85.68       85.11       84.54       83.97       83.41    
        82.85       82.31       81.78       81.27       80.78       80.31       79.85       79.42       79.00       78.60    
        78.21       77.84       77.47       77.11       76.75       76.39       76.03       75.66       75.29       74.91    
        74.51       74.10       73.67       73.21       72.74       72.23       71.71       71.15       70.58       70.00    
  35  -1000.0       90.49       90.42       90.30       90.12       89.89       89.61       89.28       88.92       88.51    
        88.08       87.62       87.13       86.63       86.11       85.57       85.03       84.48       83.94       83.40    
        82.87       82.35       81.84       81.34       80.86       80.39       79.94       79.51       79.09       78.68    
        78.28       77.89       77.51       77.14       76.76       76.39       76.01       75.63       75.25       74.85    
        74.45       74.03       73.59       73.13       72.66       72.16       71.64       71.11       70.56       70.00    
  36  -1000.0       90.05       90.00       89.89       89.72       89.51       89.25       88.94       88.60       88.23    
        87.82       87.39       86.94       86.46       85.97       85.46       84.94       84.43       83.91       83.39    
        82.88       82.38       81.88       81.40       80.92       80.46       80.01       79.58       79.15       78.74    
        78.34       77.94       77.55       77.16       76.78       76.39       76.00       75.61       75.22       74.81    
        74.39       73.97       73.52       73.07       72.59       72.10       71.60       71.07       70.54       70.00    
  37  -1000.0       89.67       89.62       89.51       89.36       89.16       88.92       88.64       88.32       87.97    
        87.59       87.18       86.75       86.30       85.83       85.35       84.86       84.36       83.87       83.37    
        82.88       82.39       81.91       81.43       80.97       80.51       80.07       79.63       79.21       78.79    
        78.38       77.98       77.58       77.18       76.79       76.39       76.00       75.59       75.19       74.77    
        74.35       73.92       73.47       73.02       72.54       72.06       71.56       71.05       70.53       70.00    
  38  -1000.0       89.34       89.29       89.19       89.04       88.85       88.62       88.36       88.06       87.73    
        87.37       86.99       86.58       86.15       85.71       85.24       84.78       84.30       83.82       83.35    
        82.87       82.40       81.93       81.46       81.01       80.56       80.11       79.68       79.25       78.83    
        78.42       78.01       77.60       77.20       76.80       76.39       75.99       75.58       75.17       74.75    
        74.32       73.88       73.43       72.97       72.50       72.02       71.53       71.03       70.52       70.00    
  39  -1000.0       89.05       88.99       88.89       88.75       88.57       88.36       88.10       87.82       87.51    
        87.17       86.81       86.42       86.01       85.59       85.14       84.69       84.24       83.78       83.32    
        82.85       82.39       81.94       81.48       81.03       80.59       80.15       79.71       79.29       78.87    
        78.45       78.03       77.62       77.21       76.81       76.40       75.98       75.57       75.15       74.72    
        74.29       73.85       73.40       72.94       72.47       71.99       71.51       71.01       70.51       70.00    
  40  -1000.0       88.80       88.74       88.64       88.50       88.32       88.12       87.88       87.61       87.31    
        86.99       86.64       86.27       85.88       85.47       85.05       84.62       84.18       83.73       83.29    
        82.84       82.39       81.94       81.49       81.05       80.61       80.17       79.74       79.31       78.89    
        78.47       78.06       77.64       77.23       76.81       76.40       75.98       75.56       75.14       74.71    
        74.27       73.83       73.37       72.92       72.45       71.97       71.49       71.00       70.50       70.00    
  41  -1000.0       88.61       88.53       88.42       88.28       88.10       87.90       87.67       87.41       87.13    
        86.82       86.49       86.14       85.76       85.37       84.96       84.55       84.12       83.69       83.25    
        82.82       82.38       81.94       81.50       81.06       80.62       80.19       79.76       79.34       78.91    
        78.49       78.07       77.65       77.24       76.82       76.40       75.98       75.55       75.12       74.69    
        74.25       73.81       73.35       72.90       72.43       71.96       71.48       70.99       70.50       70.00    
  42  -1000.0       88.39       88.34       88.22       88.08       87.90       87.71       87.48       87.24       86.96    
        86.67       86.35       86.01       85.65       85.28       84.88       84.48       84.07       83.65       83.22    
        82.79       82.36       81.93       81.50       81.07       80.64       80.21       79.78       79.35       78.93    
        78.51       78.08       77.66       77.24       76.82       76.40       75.97       75.55       75.11       74.68    
        74.24       73.79       73.34       72.88       72.41       71.94       71.46       70.98       70.49       70.00    
  43  -1000.0       88.21       88.15       88.04       87.90       87.72       87.53       87.32       87.08       86.82    
        86.53       86.23       85.90       85.56       85.19       84.81       84.42       84.02       83.61       83.19    
        82.77       82.35       81.92       81.50       81.07       80.64       80.22       79.79       79.36       78.94    
        78.52       78.10       77.67       77.25       76.83       76.40       75.97       75.54       75.11       74.67    
        74.23       73.78       73.33       72.87       72.40       71.93       71.46       70.98       70.49       70.00    
  44  -1000.0     -1000.0       87.99       87.88       87.73       87.56       87.37       87.16       86.94       86.69    
        86.41       86.12       85.81       85.47       85.12       84.75       84.36       83.97       83.57       83.16    
        82.75       82.33       81.92       81.49       81.07       80.65       80.22       79.80       79.37       78.95    
        78.53       78.10       77.68       77.25       76.83       76.40       75.97       75.54       75.10       74.66    
        74.22       73.77       73.32       72.86       72.39       71.92       71.45       70.97       70.49       70.00    
  45  -1000.0     -1000.0     -1000.0       87.73       87.58       87.41       87.23       87.03       86.81       86.57    
        86.31       86.03       85.72       85.40       85.05       84.69       84.32       83.93       83.54       83.14    
        82.73       82.32       81.91       81.49       81.07       80.65       80.23       79.80       79.38       78.96    
        78.53       78.11       77.68       77.26       76.83       76.40       75.97       75.54       75.10       74.66    
        74.21       73.76       73.31       72.85       72.39       71.92       71.44       70.97       70.49       70.00    
  46  -1000.0     -1000.0     -1000.0     -1000.0       87.45       87.28       87.09       86.90       86.69       86.47    
        86.22       85.95       85.65       85.34       85.00       84.65       84.28       83.90       83.51       83.12    
        82.72       82.31       81.90       81.49       81.07       80.65       80.23       79.81       79.38       78.96    
        78.54       78.11       77.69       77.26       76.83       76.40       75.97       75.53       75.10       74.65    
        74.21       73.76       73.30       72.84       72.38       71.91       71.44       70.96       70.48       70.00    
  47  -1000.0     -1000.0     -1000.0     -1000.0     -1000.0       87.17       86.99       86.79       86.59       86.38    
        86.14       85.88       85.60       85.29       84.96       84.61       84.25       83.88       83.49       83.10    
        82.71       82.30       81.89       81.48       81.07       80.65       80.23       79.81       79.39       78.97    
        78.54       78.12       77.69       77.26       76.83       76.40       75.97       75.53       75.09       74.65    
        74.20       73.75       73.30       72.84       72.38       71.91       71.44       70.96       70.48       70.00    
  48  -1000.0     -1000.0     -1000.0     -1000.0     -1000.0     -1000.0       86.91       86.73       86.50       86.30    
        86.08       85.83       85.56       85.26       84.93       84.59       84.23       83.86       83.48       83.09    
        82.70       82.30       81.89       81.48       81.07       80.65       80.23       79.81       79.39       78.97    
        78.54       78.12       77.69       77.26       76.83       76.40       75.97       75.53       75.09       74.65    
        74.20       73.75       73.30       72.84       72.38       71.91       71.44       70.96       70.48       70.00    
  49  -1000.0     -1000.0     -1000.0     -1000.0     -1000.0     -1000.0     -1000.0       86.69       86.48       86.24    
        86.05       85.81       85.54       85.24       84.92       84.58       84.22       83.85       83.47       83.09    
        82.69       82.29       81.89       81.48       81.07       80.65       80.23       79.81       79.39       78.97    
        78.54       78.12       77.69       77.26       76.83       76.40       75.97       75.53       75.09       74.65    
        74.20       73.75       73.30       72.84       72.37       71.91       71.44       70.96       70.48       70.00    
  50  -1000.0     -1000.0     -1000.0     -1000.0     -1000.0     -1000.0     -1000.0     -1000.0     -1000.0     -1000.0    
      -1000.0     -1000.0     -1000.0     -1000.0     -1000.0     -1000.0     -1000.0     -1000.0     -1000.0     -1000.0    
      -1000.0     -1000.0     -1000.0     -1000.0     -1000.0     -1000.0     -1000.0     -1000.0     -1000.0     -1000.0    
      -1000.0     -1000.0     -1000.0     -1000.0     -1000.0     -1000.0     -1000.0     -1000.0     -1000.0     -1000.0    
      -1000.0     -1000.0     -1000.0     -1000.0     -1000.0     -1000.0     -1000.0     -1000.0     -1000.0       70.00    
1
              HEAD IN LAYER   3 AT END OF TIME STEP   1 IN STRESS PERIOD    1
  ---------------------------------------------------------------------------

            1           2           3           4           5           6           7           8           9          10
           11          12          13          14          15          16          17          18          19          20
           21          22          23          24          25          26          27          28          29          30
           31          32          33          34          35          36          37          38          39          40
[...]
        82.07       81.25       80.47       79.76       79.15       78.68       78.32       78.02       77.76       77.54    
        77.32       77.13       76.93       76.75       76.56       76.38       76.19       76.00       75.80       75.61    
        75.42       75.21       74.97       74.70       74.38       73.97       73.44       72.69       71.58       70.00    
  24  -1000.0       98.18       97.74       97.08       96.33       95.51       94.66       93.79       92.90       92.00    
        91.09       90.17       89.24       88.31       87.38       86.45       85.51       84.58       83.65       82.73    
        81.82       80.93       80.06       79.25       78.57       78.16       77.88       77.66       77.47       77.29    
        77.13       76.98       76.83       76.68       76.53       76.39       76.24       76.09       75.94       75.79    
        75.64       75.48       75.30       75.10       74.87       74.58       74.19       73.58       72.44       70.00    
  25  -1000.0       100.0       99.20       98.26       97.31       96.34       95.36       94.39       93.40       92.42    
        91.44       90.45       89.46       88.47       87.48       86.49       85.50       84.51       83.52       82.53    
        81.55       80.56       79.58       78.61       77.70       77.51       77.38       77.26       77.15       77.04    
        76.93       76.82       76.72       76.61       76.50       76.40       76.29       76.19       76.08       75.97    
        75.87       75.76       75.65       75.53       75.42       75.29       75.15       74.97       74.49       70.00    
  26  -1000.0       98.17       97.73       97.07       96.32       95.50       94.65       93.78       92.89       91.99    
        91.08       90.16       89.24       88.31       87.38       86.44       85.51       84.58       83.65       82.73    
        81.82       80.92       80.06       79.25       78.56       78.16       77.88       77.66       77.47       77.29    
        77.13       76.98       76.83       76.68       76.54       76.40       76.25       76.11       75.96       75.81    
        75.65       75.48       75.30       75.10       74.87       74.58       74.19       73.58       72.44       70.00    
  27  -1000.0       96.71       96.43       95.96       95.36       94.68       93.95       93.17       92.37       91.55    
        90.71       89.86       89.00       88.13       87.25       86.37       85.50       84.62       83.76       82.90    
        82.06       81.25       80.47       79.76       79.15       78.68       78.32       78.02       77.76       77.53    
        77.32       77.13       76.94       76.75       76.57       76.39       76.21       76.03       75.84       75.65    
        75.44       75.22       74.98       74.70       74.38       73.97       73.44       72.69       71.58       70.00    
  28  -1000.0       95.51       95.31       94.95       94.47       93.90       93.27       92.58       91.86       91.11    
        90.34       89.56       88.76       87.94       87.12       86.30       85.47       84.66       83.85       83.05    
        82.27       81.52       80.81       80.16       79.58       79.09       78.68       78.34       78.03       77.76    
        77.50       77.27       77.04       76.82       76.60       76.39       76.17       75.96       75.73       75.50    
        75.25       74.98       74.69       74.35       73.96       73.49       72.90       72.14       71.17       70.00    
  29  -1000.0       94.48       94.33       94.05       93.65       93.17       92.62       92.01       91.37       90.69    
        89.98       89.25       88.51       87.75       86.99       86.21       85.44       84.67       83.91       83.17    
        82.44       81.74       81.08       80.47       79.91       79.42       78.99       78.61       78.26       77.95    
        77.66       77.39       77.13       76.88       76.63       76.39       76.14       75.89       75.63       75.36    
        75.08       74.77       74.43       74.05       73.62       73.11       72.51       71.79       70.95       70.00    
  30  -1000.0       93.59       93.47       93.24       92.91       92.49       92.01       91.47       90.89       90.27    
        89.63       88.96       88.26       87.56       86.84       86.12       85.39       84.67       83.96       83.26    
        82.58       81.92       81.30       80.71       80.17       79.68       79.24       78.83       78.47       78.13    
        77.81       77.51       77.22       76.94       76.66       76.39       76.11       75.83       75.54       75.24    
        74.92       74.58       74.21       73.81       73.35       72.83       72.24       71.56       70.81       70.00    
  31  -1000.0       92.81       92.71       92.52       92.23       91.87       91.45       90.97       90.44       89.88    
        89.28       88.66       88.02       87.37       86.69       86.01       85.33       84.65       83.98       83.32    
        82.68       82.06       81.47       80.90       80.38       79.89       79.44       79.02       78.64       78.28    
        77.93       77.61       77.29       76.99       76.69       76.39       76.08       75.78       75.46       75.14    
        74.79       74.43       74.03       73.61       73.14       72.62       72.04       71.41       70.72       70.00    
  32  -1000.0       92.13       92.04       91.87       91.62       91.30       90.92       90.49       90.02       89.50    
        88.96       88.38       87.79       87.17       86.54       85.91       85.26       84.62       83.99       83.37    
        82.76       82.17       81.60       81.06       80.54       80.06       79.61       79.18       78.78       78.40    
        78.04       77.70       77.36       77.03       76.71       76.39       76.06       75.73       75.40       75.05    
        74.68       74.30       73.89       73.45       72.97       72.45       71.90       71.30       70.66       70.00    
  33  -1000.0       91.51       91.44       91.29       91.07       90.79       90.45       90.06       89.62       89.15    
        88.65       88.11       87.56       86.99       86.40       85.79       85.19       84.59       83.99       83.39    
        82.81       82.25       81.70       81.18       80.67       80.20       79.74       79.31       78.90       78.51    
        78.14       77.77       77.42       77.07       76.73       76.39       76.04       75.69       75.34       74.97    
        74.59       74.19       73.76       73.32       72.84       72.33       71.79       71.21       70.62       70.00    
  34  -1000.0       90.97       90.90       90.77       90.57       90.32       90.01       89.65       89.26       88.82    
        88.35       87.86       87.34       86.80       86.25       85.68       85.11       84.54       83.97       83.41    
        82.85       82.31       81.78       81.27       80.78       80.31       79.85       79.42       79.00       78.60    
        78.21       77.84       77.47       77.11       76.75       76.39       76.03       75.66       75.29       74.91    
        74.51       74.10       73.67       73.21       72.74       72.23       71.71       71.15       70.58       70.00    
  35  -1000.0       90.49       90.42       90.30       90.12       89.89       89.61       89.28       88.92       88.51    
        88.08       87.62       87.13       86.63       86.11       85.57       85.03       84.48       83.94       83.40    
        82.87       82.35       81.84       81.34       80.86       80.39       79.94       79.51       79.09       78.68    
        78.28       77.89       77.51       77.14       76.76       76.39       76.01       75.63       75.25       74.85    
        74.45       74.03       73.59       73.13       72.66       72.16       71.64       71.11       70.56       70.00    
  36  -1000.0       90.05       90.00       89.89       89.72       89.51       89.25       88.94       88.60       88.23    
        87.82       87.39       86.94       86.46       85.97       85.46       84.94       84.43       83.91       83.39    
        82.88       82.38       81.88       81.40       80.92       80.46       80.01       79.58       79.15       78.74    
        78.34       77.94       77.55       77.16       76.78       76.39       76.00       75.61       75.22       74.81    
        74.39       73.97       73.52       73.07       72.59       72.10       71.60       71.07       70.54       70.00    
  37  -1000.0       89.67       89.62       89.51       89.36       89.16       88.92       88.64       88.32       87.97    
        87.59       87.18       86.75       86.30       85.83       85.35       84.86       84.36       83.87       83.37    
        82.88       82.39       81.91       81.43       80.97       80.51       80.07       79.63       79.21       78.79    
        78.38       77.98       77.58       77.18       76.79       76.39       76.00       75.59       75.19       74.77    
        74.35       73.92       73.47       73.02       72.54       72.06       71.56       71.05       70.53       70.00    
  38  -1000.0       89.34       89.29       89.19       89.04       88.85       88.62       88.36       88.06       87.73    
        87.37       86.99       86.58       86.15       85.71       85.24       84.78       84.30       83.82       83.35    
        82.87       82.40       81.93       81.46       81.01       80.56       80.11       79.68       79.25       78.83    
        78.42       78.01       77.60       77.20       76.80       76.39       75.99       75.58       75.17       74.75    
        74.32       73.88       73.43       72.97       72.50       72.02       71.53       71.03       70.52       70.00    
  39  -1000.0       89.05       88.99       88.89       88.75       88.57       88.36       88.10       87.82       87.51    
        87.17       86.81       86.42       86.01       85.59       85.14       84.69       84.24       83.78       83.32    
        82.85       82.39       81.94       81.48       81.03       80.59       80.15       79.71       79.29       78.87    
        78.45       78.03       77.62       77.21       76.81       76.40       75.98       75.57       75.15       74.72    
        74.29       73.85       73.40       72.94       72.47       71.99       71.51       71.01       70.51       70.00    
  40  -1000.0       88.80       88.74       88.64       88.50       88.32       88.12       87.88       87.61       87.31    
        86.99       86.64       86.27       85.88       85.47       85.05       84.62       84.18       83.73       83.29    
        82.84       82.39       81.94       81.49       81.05       80.61       80.17       79.74       79.31       78.89    
        78.47       78.06       77.64       77.23       76.81       76.40       75.98       75.56       75.14       74.71    
        74.27       73.83       73.37       72.92       72.45       71.97       71.49       71.00       70.50       70.00    
  41  -1000.0       88.61       88.53       88.42       88.28       88.10       87.90       87.67       87.41       87.13    
        86.82       86.49       86.14       85.76       85.37       84.96       84.55       84.12       83.69       83.25    
        82.82       82.38       81.94       81.50       81.06       80.62       80.19       79.76       79.34       78.91    
        78.49       78.07       77.65       77.24       76.82       76.40       75.98       75.55       75.12       74.69    
        74.25       73.81       73.35       72.90       72.43       71.96       71.48       70.99       70.50       70.00    
  42  -1000.0     -1000.0       88.34       88.22       88.08       87.90       87.71       87.48       87.24       86.96    
        86.67       86.35       86.01       85.65       85.28       84.88       84.48       84.07       83.65       83.22    
        82.79       82.36       81.93       81.50       81.07       80.64       80.21       79.78       79.35       78.93    
        78.51       78.08       77.66       77.24       76.82       76.40       75.97       75.55       75.11       74.68    
        74.24       73.79       73.34       72.88       72.41       71.94       71.46       70.98       70.49       70.00    
  43  -1000.0     -1000.0     -1000.0       88.04       87.90       87.72       87.53       87.32       87.08       86.82    
        86.53       86.23       85.90       85.56       85.19       84.81       84.42       84.02       83.61       83.19    
        82.77       82.35       81.92       81.50       81.07       80.64       80.22       79.79       79.36       78.94    
        78.52       78.10       77.67       77.25       76.83       76.40       75.97       75.54       75.11       74.67    
        74.23       73.78       73.33       72.87       72.40       71.93       71.46       70.98       70.49       70.00    
  44  -1000.0     -1000.0     -1000.0     -1000.0       87.73       87.56       87.37       87.16       86.94       86.69    
        86.41       86.12       85.81       85.47       85.12       84.75       84.36       83.97       83.57       83.16    
        82.75       82.33       81.92       81.49       81.07       80.65       80.22       79.80       79.37       78.95    
        78.53       78.10       77.68       77.25       76.83       76.40       75.97       75.54       75.10       74.66    
        74.22       73.77       73.32       72.86       72.39       71.92       71.45       70.97       70.49       70.00    
  45  -1000.0     -1000.0     -1000.0     -1000.0     -1000.0       87.41       87.23       87.03       86.81       86.57    
        86.31       86.03       85.72       85.40       85.05       84.69       84.32       83.93       83.54       83.14    
        82.73       82.32       81.91       81.49       81.07       80.65       80.23       79.80       79.38       78.96    
        78.53       78.11       77.68       77.26       76.83       76.40       75.97       75.54       75.10       74.66    
        74.21       73.76       73.31       72.85       72.39       71.92       71.44       70.97       70.49       70.00    
  46  -1000.0     -1000.0     -1000.0     -1000.0     -1000.0     -1000.0       87.09       86.90       86.69       86.47    
        86.22       85.95       85.65       85.34       85.00       84.65       84.28       83.90       83.51       83.12    
        82.72       82.31       81.90       81.49       81.07       80.65       80.23       79.81       79.38       78.96    
        78.54       78.11       77.69       77.26       76.83       76.40       75.97       75.53       75.10       74.65    
        74.21       73.76       73.30       72.84       72.38       71.91       71.44       70.96       70.48       70.00    
  47  -1000.0     -1000.0     -1000.0     -1000.0     -1000.0     -1000.0     -1000.0       86.79       86.59       86.38    
        86.14       85.88       85.60       85.29       84.96       84.61       84.25       83.88       83.49       83.10    
        82.71       82.30       81.89       81.48       81.07       80.65       80.23       79.81       79.39       78.97    
        78.54       78.12       77.69       77.26       76.83       76.40       75.97       75.53       75.09       74.65    
        74.20       73.75       73.30       72.84       72.38       71.91       71.44       70.96       70.48       70.00    
  48  -1000.0     -1000.0     -1000.0     -1000.0     -1000.0     -1000.0     -1000.0     -1000.0       86.50       86.30    
        86.08       85.83       85.56       85.26       84.93       84.59       84.23       83.86       83.48       83.09    
        82.70       82.30       81.89       81.48       81.07       80.65       80.23       79.81       79.39       78.97    
        78.54       78.12       77.69       77.26       76.83       76.40       75.97       75.53       75.09       74.65    
        74.20       73.75       73.30       72.84       72.38       71.91       71.44       70.96       70.48       70.00    
  49  -1000.0     -1000.0     -1000.0     -1000.0     -1000.0     -1000.0     -1000.0     -1000.0     -1000.0       86.24    
        86.05       85.81       85.54       85.24       84.92       84.58       84.22       83.85       83.47       83.09    
        82.69       82.29       81.89       81.48       81.07       80.65       80.23       79.81       79.39       78.97    
        78.54       78.12       77.69       77.26       76.83       76.40       75.97       75.53       75.09       74.65    
        74.20       73.75       73.30       72.84       72.37       71.91       71.44       70.96       70.48       70.00    
  50  -1000.0     -1000.0     -1000.0     -1000.0     -1000.0     -1000.0     -1000.0     -1000.0     -1000.0     -1000.0    
      -1000.0     -1000.0     -1000.0     -1000.0     -1000.0     -1000.0     -1000.0     -1000.0     -1000.0     -1000.0    
      -1000.0     -1000.0     -1000.0     -1000.0     -1000.0     -1000.0     -1000.0     -1000.0     -1000.0     -1000.0    
      -1000.0     -1000.0     -1000.0     -1000.0     -1000.0     -1000.0     -1000.0     -1000.0     -1000.0     -1000.0    
      -1000.0     -1000.0     -1000.0     -1000.0     -1000.0     -1000.0     -1000.0     -1000.0     -1000.0       70.00    

 HEAD WILL BE SAVED ON UNIT   51 AT END OF TIME STEP    1, STRESS PERIOD    1

 DRAWDOWN WILL BE SAVED ON UNIT   52 AT END OF TIME STEP    1, STRESS PERIOD    1
1
  VOLUMETRIC BUDGET FOR ENTIRE MODEL AT END OF TIME STEP    1, STRESS PERIOD   1
  ------------------------------------------------------------------------------

     CUMULATIVE VOLUMES      L**3       RATES FOR THIS TIME STEP      L**3/T
     ------------------                 ------------------------

           IN:                                      IN:
           ---                                      ---
             STORAGE =           0.0000               STORAGE =           0.0000
       CONSTANT HEAD =           0.0000         CONSTANT HEAD =           0.0000
               WELLS =         375.0000                 WELLS =         375.0000
       RIVER LEAKAGE =      336399.9375         RIVER LEAKAGE =      336399.9375
                  ET =           0.0000                    ET =           0.0000
            RECHARGE =       32599.9980              RECHARGE =       32599.9980

            TOTAL IN =      369374.9375              TOTAL IN =      369374.9375

          OUT:                                     OUT:
          ----                                     ----
             STORAGE =           0.0000               STORAGE =           0.0000
       CONSTANT HEAD =      269809.4375         CONSTANT HEAD =      269809.4375
               WELLS =        1500.0000                 WELLS =        1500.0000
       RIVER LEAKAGE =       97022.2031         RIVER LEAKAGE =       97022.2031
                  ET =        1043.1780                    ET =        1043.1780
            RECHARGE =           0.0000              RECHARGE =           0.0000

           TOTAL OUT =      369374.8125             TOTAL OUT =      369374.8125

            IN - OUT =           0.1250              IN - OUT =           0.1250

 PERCENT DISCREPANCY =           0.00     PERCENT DISCREPANCY =           0.00






         TIME SUMMARY AT END OF TIME STEP    1 IN STRESS PERIOD    1
                    SECONDS     MINUTES      HOURS       DAYS        YEARS
                    -----------------------------------------------------------
   TIME STEP LENGTH  86400.      1440.0      24.000      1.0000     2.73785E-03
 STRESS PERIOD TIME  86400.      1440.0      24.000      1.0000     2.73785E-03
         TOTAL TIME  86400.      1440.0      24.000      1.0000     2.73785E-03
1

 Run end date and time (yyyy/mm/dd hh:mm:ss): 2026/02/25  2:30:24
 Elapsed run time: 15.953 Seconds

