                                  MODFLOW-2005     
      U.S. GEOLOGICAL SURVEY MODULAR FINITE-DIFFERENCE GROUND-WATER FLOW MODEL
                            VERSION 1.12.00 2/3/2017

 LIST FILE: static_ensemble_2222222.list
                         UNIT    2

 OPENING static_ensemble_2222222.dis
 FILE TYPE:DIS   UNIT   11   STATUS:OLD    
 FORMAT:FORMATTED              ACCESS:SEQUENTIAL          

 OPENING static_ensemble_2222222.bas
 FILE TYPE:BAS6   UNIT   13   STATUS:OLD    
 FORMAT:FORMATTED              ACCESS:SEQUENTIAL          

 OPENING static_ensemble_2222222.lpf
 FILE TYPE:LPF   UNIT   15   STATUS:OLD    
 FORMAT:FORMATTED              ACCESS:SEQUENTIAL          

 OPENING static_ensemble_2222222.evt
 FILE TYPE:EVT   UNIT   22   STATUS:OLD    
 FORMAT:FORMATTED              ACCESS:SEQUENTIAL          

 OPENING static_ensemble_2222222.rch
 FILE TYPE:RCH   UNIT   19   STATUS:OLD    
 FORMAT:FORMATTED              ACCESS:SEQUENTIAL          

 OPENING static_ensemble_2222222.riv
 FILE TYPE:RIV   UNIT   18   STATUS:OLD    
 FORMAT:FORMATTED              ACCESS:SEQUENTIAL          

 OPENING static_ensemble_2222222.wel
 FILE TYPE:WEL   UNIT   20   STATUS:OLD    
 FORMAT:FORMATTED              ACCESS:SEQUENTIAL          

 OPENING static_ensemble_2222222.oc
 FILE TYPE:OC   UNIT   14   STATUS:OLD    
 FORMAT:FORMATTED              ACCESS:SEQUENTIAL          

 OPENING static_ensemble_2222222.pcg
 FILE TYPE:PCG   UNIT   27   STATUS:OLD    
 FORMAT:FORMATTED              ACCESS:SEQUENTIAL          

 OPENING static_ensemble_2222222.cbc
 FILE TYPE:DATA(BINARY)   UNIT   53   STATUS:REPLACE
 FORMAT:UNFORMATTED            ACCESS:STREAM              

 OPENING static_ensemble_2222222.hds
 FILE TYPE:DATA(BINARY)   UNIT   51   STATUS:REPLACE
 FORMAT:UNFORMATTED            ACCESS:STREAM              

 OPENING static_ensemble_2222222.ddn
 FILE TYPE:DATA(BINARY)   UNIT   52   STATUS:REPLACE
 FORMAT:UNFORMATTED            ACCESS:STREAM              

 BAS -- BASIC PACKAGE, VERSION 7, 5/2/2005 INPUT READ FROM UNIT   13
 
 MODFLOW was compiled using mixed precision
 Precision of REAL variables:           6
 Precision of DOUBLE PRECISION variables:          15

 DISCRETIZATION INPUT DATA READ FROM UNIT   11
 # DIS package for MODFLOW-2005 generated by Flopy 3.9.5
    3 LAYERS        50 ROWS        50 COLUMNS
    1 STRESS PERIOD(S) IN SIMULATION
 MODEL TIME UNIT IS DAYS
 MODEL LENGTH UNIT IS METERS
  Confining bed flag for each layer:
   0   0   0

                     DELR =   1000.00    

                     DELC =   1000.00    



           TOP ELEVATION OF LAYER 1
 READING ON UNIT   11 WITH FORMAT: (50E15.6)           



             MODEL LAYER BOTTOM EL. FOR LAYER   1
 READING ON UNIT   11 WITH FORMAT: (50E15.6)           



             MODEL LAYER BOTTOM EL. FOR LAYER   2
 READING ON UNIT   11 WITH FORMAT: (50E15.6)           



             MODEL LAYER BOTTOM EL. FOR LAYER   3
 READING ON UNIT   11 WITH FORMAT: (50E15.6)           


 STRESS PERIOD     LENGTH       TIME STEPS     MULTIPLIER FOR DELT    SS FLAG
 ----------------------------------------------------------------------------
        1         1.000000          1                    1.000         SS

 STEADY-STATE SIMULATION



 
 # BAS6 package for MODFLOW-2005 generated by Flopy 3.9.5                        
 THE FREE FORMAT OPTION HAS BEEN SELECTED



                     BOUNDARY ARRAY FOR LAYER   1
 READING ON UNIT   13 WITH FORMAT: (50I10)             



                     BOUNDARY ARRAY FOR LAYER   2
 READING ON UNIT   13 WITH FORMAT: (50I10)             



                     BOUNDARY ARRAY FOR LAYER   3
 READING ON UNIT   13 WITH FORMAT: (50I10)             

 AQUIFER HEAD WILL BE SET TO  -999.99     AT ALL NO-FLOW NODES (IBOUND=0).



                       INITIAL HEAD FOR LAYER   1
 READING ON UNIT   13 WITH FORMAT: (50E15.6)           



                       INITIAL HEAD FOR LAYER   2
 READING ON UNIT   13 WITH FORMAT: (50E15.6)           



                       INITIAL HEAD FOR LAYER   3
 READING ON UNIT   13 WITH FORMAT: (50E15.6)           
 # OC package for MODFLOW-2005 generated by Flopy 3.9.5

 OUTPUT CONTROL IS SPECIFIED ONLY AT TIME STEPS FOR WHICH OUTPUT IS DESIRED
 COMPACT CELL-BY-CELL BUDGET FILES WILL BE WRITTEN
 AUXILIARY DATA WILL BE SAVED IN CELL-BY-CELL BUDGET FILES
 HEAD PRINT FORMAT CODE IS   0    DRAWDOWN PRINT FORMAT CODE IS   0
 HEADS WILL BE SAVED ON UNIT   51    DRAWDOWNS WILL BE SAVED ON UNIT   52

 LPF -- LAYER-PROPERTY FLOW PACKAGE, VERSION 7, 5/2/2005
         INPUT READ FROM UNIT   15
 # LPF package for MODFLOW-2005 generated by Flopy 3.9.5
 CELL-BY-CELL FLOWS WILL BE SAVED ON UNIT   53
 HEAD AT CELLS THAT CONVERT TO DRY= -1.00000E+30
 No named parameters
 STORAGECOEFFICIENT OPTION:
 Read storage coefficient rather than specific storage

   LAYER FLAGS:
 LAYER       LAYTYP        LAYAVG         CHANI        LAYVKA        LAYWET
 ---------------------------------------------------------------------------
    1             1             0     1.000E+00             0             0
    2             1             0     1.000E+00             0             0
    3             1             0     1.000E+00             0             0

   INTERPRETATION OF LAYER FLAGS:
                        INTERBLOCK     HORIZONTAL    DATA IN
         LAYER TYPE   TRANSMISSIVITY   ANISOTROPY   ARRAY VKA   WETTABILITY
 LAYER      (LAYTYP)      (LAYAVG)       (CHANI)      (LAYVKA)      (LAYWET)
 ---------------------------------------------------------------------------
    1   CONVERTIBLE      HARMONIC     1.000E+00    VERTICAL K  NON-WETTABLE
    2   CONVERTIBLE      HARMONIC     1.000E+00    VERTICAL K  NON-WETTABLE
    3   CONVERTIBLE      HARMONIC     1.000E+00    VERTICAL K  NON-WETTABLE

 WETTING CAPABILITY IS NOT ACTIVE IN ANY LAYER



              HYD. COND. ALONG ROWS FOR LAYER   1
 READING ON UNIT   15 WITH FORMAT: (50E15.6)           



                VERTICAL HYD. COND. FOR LAYER   1
 READING ON UNIT   15 WITH FORMAT: (50E15.6)           



              HYD. COND. ALONG ROWS FOR LAYER   2
 READING ON UNIT   15 WITH FORMAT: (50E15.6)           



                VERTICAL HYD. COND. FOR LAYER   2
 READING ON UNIT   15 WITH FORMAT: (50E15.6)           



              HYD. COND. ALONG ROWS FOR LAYER   3
 READING ON UNIT   15 WITH FORMAT: (50E15.6)           



                VERTICAL HYD. COND. FOR LAYER   3
 READING ON UNIT   15 WITH FORMAT: (50E15.6)           

 WEL -- WELL PACKAGE, VERSION 7, 5/2/2005 INPUT READ FROM UNIT   20
 # WEL package for MODFLOW-2005 generated by Flopy 3.9.5
 No named parameters
 MAXIMUM OF      3 ACTIVE WELLS AT ONE TIME


     0 Well parameters

 RIV -- RIVER PACKAGE, VERSION 7, 5/2/2005 INPUT READ FROM UNIT   18
 # RIV package for MODFLOW-2005 generated by Flopy 3.9.5
 No named parameters
 MAXIMUM OF     49 ACTIVE RIVER REACHES AT ONE TIME
 CELL-BY-CELL FLOWS WILL BE SAVED ON UNIT   53


     0 River parameters

 EVT -- EVAPOTRANSPIRATION PACKAGE, VERSION 7, 5/2/2005
         INPUT READ FROM UNIT   22
 # EVT package for MODFLOW-2005 generated by Flopy 3.9.5
 No named parameters
 OPTION 3 -- EVAPOTRANSPIRATION FROM HIGHEST ACTIVE NODE IN EACH VERTICAL COLUMN
 CELL-BY-CELL FLOWS WILL BE SAVED ON UNIT   53


     0 Evapotranspiration parameters

 RCH -- RECHARGE PACKAGE, VERSION 7, 5/2/2005 INPUT READ FROM UNIT   19
 # RCH package for MODFLOW-2005 generated by Flopy 3.9.5
 No named parameters
 OPTION 3 -- RECHARGE TO HIGHEST ACTIVE NODE IN EACH VERTICAL COLUMN
 CELL-BY-CELL FLOWS WILL BE SAVED ON UNIT   53


     0 Recharge parameters

 PCG -- CONJUGATE-GRADIENT SOLUTION PACKAGE, VERSION 7, 5/2/2005
 # PCG package for MODFLOW-2005 generated by Flopy 3.9.5
 MAXIMUM OF   5000 CALLS OF SOLUTION ROUTINE
 MAXIMUM OF    500 INTERNAL ITERATIONS PER CALL TO SOLUTION ROUTINE
 MATRIX PRECONDITIONING TYPE :    1



                                    SOLUTION BY THE CONJUGATE-GRADIENT METHOD
                                   -------------------------------------------
                    MAXIMUM NUMBER OF CALLS TO PCG ROUTINE =     5000
                        MAXIMUM ITERATIONS PER CALL TO PCG =      500
                               MATRIX PRECONDITIONING TYPE =        1
        RELAXATION FACTOR (ONLY USED WITH PRECOND. TYPE 1) =    0.97000E+00
 PARAMETER OF POLYNOMIAL PRECOND. = 2 (2) OR IS CALCULATED :        0
                         HEAD CHANGE CRITERION FOR CLOSURE =    0.10000E-04
                     RESIDUAL CHANGE CRITERION FOR CLOSURE =    0.10000E-04
            PCG HEAD AND RESIDUAL CHANGE PRINTOUT INTERVAL =      999
     PRINTING FROM SOLVER IS LIMITED(1) OR SUPPRESSED (>1) =        3
                            STEADY-STATE DAMPING PARAMETER =    0.10000E-01
                               TRANSIENT DAMPING PARAMETER =    0.10000E-01
1
                            STRESS PERIOD NO.    1, LENGTH =   1.000000    
                            -----------------------------------------------

                              NUMBER OF TIME STEPS =     1

                               MULTIPLIER FOR DELT =     1.000

                            INITIAL TIME STEP SIZE =   1.000000    

 WELL NO.  LAYER   ROW   COL   STRESS RATE         
 --------------------------------------------------
      1      3     22     39      -1500.    
      2      1     13     15       0.000    
      3      1     25     26       375.0    

      3 WELLS

 REACH NO.  LAYER   ROW   COL     STAGE      CONDUCTANCE     BOTTOM EL.         
 -------------------------------------------------------------------------------
      1      1     25      2       100.5           2500.           98.00    
      2      1     25      3       99.50           2500.           97.00    
      3      1     25      4       98.50           2500.           96.00    
      4      1     25      5       97.50           2500.           95.00    
      5      1     25      6       96.50           2500.           94.00    
      6      1     25      7       95.50           2500.           93.00    
      7      1     25      8       94.50           2500.           92.00    
      8      1     25      9       93.50           2500.           91.00    
      9      1     25     10       92.50           2500.           90.00    
     10      1     25     11       91.50           2500.           89.00    
     11      1     25     12       90.50           2500.           88.00    
     12      1     25     13       89.50           2500.           87.00    
     13      1     25     14       88.50           2500.           86.00    
     14      1     25     15       87.50           2500.           85.00    
     15      1     25     16       86.50           2500.           84.00    
     16      1     25     17       85.50           2500.           83.00    
     17      1     25     18       84.50           2500.           82.00    
     18      1     25     19       83.50           2500.           81.00    
     19      1     25     20       82.50           2500.           80.00    
     20      1     25     21       81.50           2500.           79.00    
     21      1     25     22       80.50           2500.           78.00    
     22      1     25     23       79.50           2500.           77.00    
     23      1     25     24       78.50           2500.           76.00    
     24      1     25     25       77.50           2500.           75.00    
     25      1     25     26       77.40           2500.           74.90    
     26      1     25     27       77.30           2500.           74.80    
     27      1     25     28       77.20           2500.           74.70    
     28      1     25     29       77.10           2500.           74.60    
     29      1     25     30       77.00           2500.           74.50    
     30      1     25     31       76.90           2500.           74.40    
     31      1     25     32       76.80           2500.           74.30    
     32      1     25     33       76.70           2500.           74.20    
     33      1     25     34       76.60           2500.           74.10    
     34      1     25     35       76.50           2500.           74.00    
     35      1     25     36       76.40           2500.           73.90    
     36      1     25     37       76.30           2500.           73.80    
     37      1     25     38       76.20           2500.           73.70    
     38      1     25     39       76.10           2500.           73.60    
     39      1     25     40       76.00           2500.           73.50    
     40      1     25     41       75.90           2500.           73.40    
     41      1     25     42       75.80           2500.           73.30    
     42      1     25     43       75.70           2500.           73.20    
     43      1     25     44       75.60           2500.           73.10    
     44      1     25     45       75.50           2500.           73.00    
     45      1     25     46       75.40           2500.           72.90    
     46      1     25     47       75.30           2500.           72.80    
     47      1     25     48       75.20           2500.           72.70    
     48      1     25     49       75.10           2500.           72.60    
     49      1     25     50       75.00           2500.           72.50    

     49 RIVER REACHES



                         ET SURFACE
 READING ON UNIT   22 WITH FORMAT: (50E15.6)           



            EVAPOTRANSPIRATION RATE
 READING ON UNIT   22 WITH FORMAT: (50E15.6)           

         EXTINCTION DEPTH =   10.0000    



                           RECHARGE
 READING ON UNIT   19 WITH FORMAT: (50E15.6)           
 
 SOLVING FOR HEAD 

 OUTPUT CONTROL FOR STRESS PERIOD    1   TIME STEP    1
    SAVE HEAD FOR ALL LAYERS
    SAVE DRAWDOWN FOR ALL LAYERS
    SAVE BUDGET
    PRINT HEAD FOR ALL LAYERS
    PRINT BUDGET
 UBDSV2 SAVING "   CONSTANT HEAD" ON UNIT  53 AT TIME STEP  1, STRESS PERIOD   1
 UBDSV1 SAVING "FLOW RIGHT FACE " ON UNIT  53 AT TIME STEP  1, STRESS PERIOD   1
 UBDSV1 SAVING "FLOW FRONT FACE " ON UNIT  53 AT TIME STEP  1, STRESS PERIOD   1
 UBDSV1 SAVING "FLOW LOWER FACE " ON UNIT  53 AT TIME STEP  1, STRESS PERIOD   1
 UBDSV4 SAVING "   RIVER LEAKAGE" ON UNIT  53 AT TIME STEP  1, STRESS PERIOD   1
 UBDSV3 SAVING "              ET" ON UNIT  53 AT TIME STEP  1, STRESS PERIOD   1
 UBDSV3 SAVING "        RECHARGE" ON UNIT  53 AT TIME STEP  1, STRESS PERIOD   1
1
              HEAD IN LAYER   1 AT END OF TIME STEP   1 IN STRESS PERIOD    1
  ---------------------------------------------------------------------------

            1           2           3           4           5           6           7           8           9          10
           11          12          13          14          15          16          17          18          19          20
           21          22          23          24          25          26          27          28          29          30
           31          32          33          34          35          36          37          38          39          40
           41          42          43          44          45          46          47          48          49          50
 ........................................................................................................................
   1  -1000.0     -1000.0     -1000.0     -1000.0     -1000.0     -1000.0     -1000.0     -1000.0     -1000.0     -1000.0    
      -1000.0     -1000.0     -1000.0     -1000.0     -1000.0     -1000.0     -1000.0     -1000.0     -1000.0     -1000.0    
      -1000.0     -1000.0     -1000.0     -1000.0     -1000.0     -1000.0     -1000.0     -1000.0     -1000.0     -1000.0    
      -1000.0     -1000.0     -1000.0     -1000.0     -1000.0     -1000.0     -1000.0     -1000.0     -1000.0     -1000.0    
      -1000.0     -1000.0     -1000.0     -1000.0     -1000.0     -1000.0     -1000.0     -1000.0     -1000.0       70.00    
   2  -1000.0     -1000.0     -1000.0     -1000.0     -1000.0       87.95       87.83       87.63       87.40       87.13    
        86.92       86.65       86.34       86.01       85.64       85.25       84.85       84.44       84.02       83.59    
        83.16       82.72       82.28       81.84       81.40       80.96       80.51       80.07       79.62       79.18    
        78.73       78.29       77.84       77.39       76.95       76.50       76.05       75.61       75.15       74.70    
        74.25       73.79       73.33       72.86       72.39       71.92       71.45       70.97       70.49       70.00    
   3  -1000.0     -1000.0     -1000.0     -1000.0       88.18       88.04       87.87       87.66       87.42       87.19    
        86.95       86.67       86.36       86.02       85.65       85.26       84.86       84.44       84.02       83.59    
        83.16       82.72       82.28       81.84       81.40       80.95       80.51       80.06       79.62       79.17    
        78.73       78.28       77.84       77.39       76.95       76.50       76.05       75.60       75.15       74.70    
        74.25       73.79       73.33       72.86       72.39       71.92       71.45       70.97       70.49       70.00    
   4  -1000.0     -1000.0     -1000.0       88.44       88.29       88.13       87.94       87.71       87.50       87.26    
        87.00       86.71       86.39       86.05       85.68       85.28       84.87       84.45       84.03       83.60    
        83.16       82.73       82.28       81.84       81.40       80.95       80.50       80.06       79.61       79.17    
        78.72       78.28       77.83       77.39       76.94       76.50       76.05       75.60       75.15       74.70    
        74.25       73.79       73.33       72.86       72.39       71.92       71.45       70.97       70.49       70.00    
   5  -1000.0     -1000.0       88.69       88.56       88.40       88.22       88.01       87.81       87.59       87.34    
        87.06       86.77       86.44       86.09       85.71       85.30       84.89       84.47       84.04       83.61    
        83.17       82.73       82.28       81.84       81.39       80.94       80.50       80.05       79.60       79.16    
        78.71       78.27       77.83       77.38       76.94       76.49       76.05       75.60       75.15       74.70    
        74.25       73.79       73.33       72.86       72.40       71.92       71.45       70.97       70.49       70.00    
   6  -1000.0       88.90       88.80       88.67       88.51       88.32       88.13       87.92       87.68       87.42    
        87.14       86.83       86.50       86.13       85.75       85.34       84.92       84.49       84.06       83.62    
        83.18       82.73       82.28       81.83       81.39       80.94       80.49       80.04       79.59       79.15    
        78.70       78.26       77.82       77.37       76.93       76.49       76.04       75.60       75.15       74.70    
        74.25       73.79       73.33       72.87       72.40       71.93       71.45       70.97       70.49       70.00    
   7  -1000.0       88.97       88.90       88.78       88.63       88.45       88.26       88.04       87.79       87.52    
        87.23       86.91       86.56       86.19       85.80       85.38       84.95       84.52       84.08       83.63    
        83.18       82.73       82.28       81.83       81.38       80.93       80.47       80.03       79.58       79.13    
        78.69       78.25       77.80       77.36       76.92       76.48       76.04       75.59       75.15       74.70    
        74.25       73.79       73.33       72.87       72.40       71.93       71.45       70.97       70.49       70.00    
   8  -1000.0       89.09       89.03       88.91       88.76       88.59       88.39       88.16       87.91       87.63    
        87.33       86.99       86.64       86.26       85.85       85.42       84.99       84.54       84.10       83.64    
        83.19       82.73       82.28       81.82       81.36       80.91       80.46       80.01       79.56       79.11    
        78.67       78.23       77.79       77.35       76.91       76.47       76.03       75.59       75.14       74.70    
        74.25       73.79       73.34       72.87       72.41       71.93       71.46       70.98       70.49       70.00    
   9  -1000.0       89.23       89.18       89.06       88.91       88.74       88.53       88.30       88.04       87.75    
        87.43       87.09       86.72       86.33       85.91       85.48       85.03       84.58       84.12       83.66    
        83.20       82.73       82.27       81.81       81.35       80.89       80.44       79.98       79.54       79.09    
        78.65       78.21       77.77       77.33       76.90       76.46       76.02       75.58       75.14       74.70    
        74.25       73.80       73.34       72.88       72.41       71.94       71.46       70.98       70.49       70.00    
  10  -1000.0       89.40       89.33       89.22       89.08       88.90       88.69       88.45       88.18       87.88    
        87.55       87.20       86.82       86.41       85.98       85.53       85.07       84.61       84.14       83.67    
        83.20       82.73       82.26       81.79       81.33       80.87       80.41       79.96       79.51       79.06    
        78.62       78.18       77.75       77.31       76.88       76.45       76.01       75.58       75.14       74.70    
        74.26       73.81       73.35       72.89       72.42       71.95       71.47       70.98       70.49       70.00    
  11  -1000.0       89.56       89.50       89.40       89.26       89.08       88.87       88.62       88.34       88.03    
        87.69       87.32       86.92       86.50       86.06       85.59       85.12       84.65       84.17       83.68    
        83.20       82.72       82.24       81.77       81.30       80.83       80.37       79.92       79.47       79.03    
        78.59       78.15       77.72       77.29       76.86       76.43       76.00       75.57       75.14       74.70    
        74.26       73.81       73.36       72.90       72.44       71.96       71.48       70.99       70.50       70.00    
  12  -1000.0       89.76       89.71       89.61       89.47       89.28       89.06       88.80       88.51       88.19    
        87.83       87.45       87.04       86.60       86.14       85.66       85.17       84.68       84.19       83.69    
        83.20       82.71       82.22       81.74       81.27       80.80       80.33       79.88       79.43       78.98    
        78.55       78.12       77.69       77.26       76.84       76.42       75.99       75.57       75.14       74.71    
        74.27       73.83       73.38       72.92       72.45       71.98       71.49       71.00       70.50       70.00    
  13  -1000.0       90.00       89.95       89.85       89.70       89.51       89.28       89.01       88.70       88.36    
        87.99       87.59       87.16       86.70       86.23       85.73       85.22       84.72       84.21       83.70    
        83.19       82.69       82.19       81.70       81.22       80.75       80.28       79.82       79.38       78.93    
        78.50       78.07       77.65       77.23       76.81       76.40       75.98       75.56       75.14       74.71    
        74.28       73.84       73.40       72.94       72.47       72.00       71.51       71.01       70.51       70.00    
  14  -1000.0       90.27       90.22       90.12       89.96       89.76       89.52       89.23       88.91       88.55    
        88.16       87.74       87.29       86.81       86.32       85.80       85.27       84.75       84.22       83.70    
        83.18       82.66       82.16       81.66       81.17       80.69       80.22       79.76       79.31       78.88    
        78.45       78.02       77.61       77.20       76.79       76.38       75.97       75.56       75.14       74.73    
        74.30       73.87       73.42       72.97       72.50       72.02       71.53       71.03       70.52       70.00    
  15  -1000.0       90.59       90.53       90.42       90.26       90.05       89.79       89.48       89.14       88.76    
        88.35       87.90       87.43       86.93       86.41       85.87       85.32       84.78       84.23       83.69    
        83.15       82.63       82.11       81.60       81.10       80.61       80.14       79.68       79.24       78.81    
        78.38       77.97       77.56       77.15       76.75       76.35       75.95       75.55       75.15       74.74    
        74.32       73.90       73.46       73.01       72.54       72.06       71.56       71.05       70.53       70.00    
  16  -1000.0       90.94       90.88       90.76       90.59       90.36       90.08       89.76       89.39       88.99    
        88.55       88.08       87.58       87.05       86.51       85.94       85.37       84.80       84.24       83.67    
        83.12       82.58       82.04       81.52       81.02       80.53       80.05       79.60       79.15       78.73    
        78.31       77.90       77.50       77.11       76.72       76.33       75.94       75.55       75.16       74.76    
        74.35       73.94       73.51       73.06       72.59       72.11       71.60       71.08       70.55       70.00    
  17  -1000.0       91.34       91.28       91.15       90.96       90.71       90.41       90.06       89.66       89.23    
        88.76       88.26       87.73       87.18       86.61       86.01       85.42       84.82       84.23       83.65    
        83.07       82.51       81.96       81.43       80.91       80.42       79.94       79.49       79.05       78.63    
        78.23       77.83       77.44       77.06       76.68       76.31       75.93       75.55       75.17       74.78    
        74.39       73.99       73.57       73.12       72.66       72.17       71.66       71.12       70.57       70.00    
  18  -1000.0       91.79       91.72       91.58       91.37       91.09       90.77       90.39       89.96       89.49    
        88.99       88.46       87.90       87.31       86.71       86.08       85.46       84.84       84.22       83.61    
        83.01       82.43       81.86       81.32       80.79       80.29       79.82       79.37       78.94       78.53    
        78.13       77.75       77.37       77.01       76.64       76.28       75.92       75.55       75.18       74.82    
        74.44       74.05       73.64       73.21       72.75       72.26       71.73       71.18       70.60       70.00    
  19  -1000.0       92.30       92.22       92.06       91.82       91.52       91.16       90.74       90.28       89.78    
        89.24       88.67       88.07       87.45       86.81       86.15       85.49       84.84       84.19       83.55    
        82.93       82.32       81.73       81.18       80.64       80.14       79.67       79.22       78.80       78.41    
        78.02       77.66       77.30       76.95       76.60       76.25       75.90       75.55       75.20       74.86    
        74.50       74.14       73.74       73.32       72.87       72.37       71.83       71.25       70.64       70.00    
  20  -1000.0       92.87       92.78       92.59       92.33       91.99       91.59       91.13       90.62       90.08    
        89.50       88.88       88.25       87.59       86.91       86.21       85.52       84.83       84.15       83.47    
        82.82       82.19       81.58       81.00       80.46       79.96       79.49       79.05       78.65       78.27    
        77.91       77.56       77.22       76.89       76.56       76.23       75.89       75.55       75.21       74.90    
        74.58       74.24       73.87       73.47       73.02       72.52       71.97       71.36       70.70       70.00    
  21  -1000.0       93.52       93.41       93.20       92.89       92.51       92.06       91.55       90.99       90.40    
        89.77       89.11       88.43       87.72       87.00       86.27       85.53       84.80       84.08       83.38    
        82.69       82.02       81.39       80.79       80.24       79.73       79.27       78.85       78.47       78.11    
        77.77       77.45       77.14       76.83       76.53       76.21       75.89       75.55       75.20       74.95    
        74.68       74.38       74.04       73.65       73.22       72.73       72.16       71.51       70.78       70.00    
  22  -1000.0       94.26       94.13       93.88       93.52       93.08       92.56       91.99       91.38       90.73    
        90.05       89.34       88.61       87.86       87.09       86.31       85.54       84.77       84.01       83.26    
        82.53       81.83       81.16       80.54       79.97       79.47       79.02       78.62       78.27       77.94    
        77.63       77.34       77.05       76.78       76.50       76.21       75.91       75.56       75.11       75.02    
        74.82       74.55       74.25       73.89       73.48       73.00       72.42       71.74       70.92       70.00    
  23  -1000.0       95.11       94.95       94.64       94.21       93.70       93.11       92.47       91.79       91.08    
        90.34       89.57       88.79       87.99       87.18       86.36       85.54       84.72       83.91       83.12    
        82.34       81.59       80.88       80.22       79.64       79.15       78.73       78.36       78.04       77.75    
        77.47       77.22       76.97       76.73       76.48       76.23       75.97       75.70       75.41       75.22    
        75.02       74.78       74.50       74.19       73.81       73.36       72.80       72.09       71.15       70.00    
  24  -1000.0       96.10       95.90       95.51       94.98       94.37       93.70       92.98       92.22       91.44    
        90.64       89.82       88.98       88.13       87.27       86.40       85.53       84.67       83.81       82.96    
        82.13       81.32       80.55       79.84       79.22       78.76       78.38       78.06       77.79       77.54    
        77.31       77.10       76.89       76.68       76.48       76.27       76.06       75.85       75.63       75.44    
        75.25       75.05       74.81       74.54       74.23       73.84       73.34       72.64       71.60       70.00    
  25  -1000.0       97.27       97.03       96.49       95.83       95.09       94.31       93.50       92.67       91.81    
        90.94       90.06       89.17       88.26       87.35       86.43       85.52       84.60       83.69       82.79    
        81.89       81.01       80.15       79.34       78.63       78.28       77.97       77.72       77.52       77.33    
        77.15       76.98       76.81       76.65       76.49       76.33       76.17       76.01       75.84       75.68    
        75.52       75.35       75.17       74.97       74.73       74.45       74.09       73.56       72.60       70.00    
  26  -1000.0       96.09       95.89       95.50       94.97       94.36       93.69       92.97       92.21       91.43    
        90.63       89.81       88.97       88.12       87.26       86.39       85.52       84.66       83.81       82.96    
        82.13       81.32       80.55       79.83       79.22       78.75       78.38       78.06       77.79       77.54    
        77.31       77.10       76.90       76.70       76.50       76.30       76.11       75.91       75.71       75.51    
        75.30       75.07       74.83       74.55       74.23       73.84       73.34       72.64       71.59       70.00    
  27  -1000.0       95.09       94.93       94.62       94.19       93.68       93.09       92.45       91.77       91.06    
        90.32       89.55       88.77       87.98       87.17       86.34       85.52       84.71       83.91       83.11    
        82.34       81.59       80.88       80.22       79.64       79.14       78.72       78.36       78.04       77.74    
        77.48       77.22       76.98       76.75       76.52       76.29       76.06       75.83       75.60       75.35    
        75.10       74.83       74.54       74.21       73.83       73.37       72.81       72.09       71.15       70.00    
  28  -1000.0       94.23       94.10       93.85       93.49       93.05       92.53       91.97       91.35       90.70    
        90.02       89.31       88.58       87.83       87.07       86.29       85.52       84.75       83.99       83.25    
        82.52       81.82       81.15       80.53       79.96       79.46       79.01       78.62       78.26       77.93    
        77.63       77.34       77.07       76.80       76.54       76.28       76.02       75.76       75.50       75.22    
        74.93       74.63       74.29       73.92       73.50       73.01       72.43       71.74       70.92       70.00    
  29  -1000.0       93.48       93.37       93.16       92.86       92.47       92.02       91.51       90.96       90.36    
        89.73       89.08       88.39       87.69       86.97       86.24       85.51       84.78       84.07       83.36    
        82.68       82.02       81.38       80.79       80.23       79.72       79.26       78.84       78.46       78.11    
        77.77       77.46       77.15       76.86       76.57       76.29       76.00       75.71       75.42       75.11    
        74.79       74.45       74.09       73.69       73.24       72.74       72.17       71.51       70.78       70.00    
  30  -1000.0       92.82       92.73       92.55       92.28       91.95       91.54       91.09       90.58       90.04    
        89.46       88.85       88.21       87.55       86.87       86.18       85.49       84.80       84.12       83.45    
        82.80       82.17       81.57       80.99       80.45       79.94       79.47       79.04       78.64       78.26    
        77.90       77.56       77.24       76.92       76.61       76.30       75.98       75.67       75.35       75.02    
        74.68       74.31       73.92       73.50       73.04       72.54       71.98       71.36       70.70       70.00    
  31  -1000.0       92.24       92.16       92.00       91.77       91.47       91.11       90.69       90.23       89.73    
        89.19       88.62       88.03       87.41       86.77       86.11       85.46       84.81       84.16       83.52    
        82.90       82.30       81.71       81.16       80.62       80.12       79.65       79.20       78.79       78.39    
        78.02       77.66       77.31       76.97       76.64       76.31       75.97       75.64       75.30       74.94    
        74.58       74.19       73.79       73.35       72.89       72.38       71.84       71.26       70.64       70.00    
  32  -1000.0       91.73       91.66       91.51       91.30       91.03       90.71       90.33       89.90       89.44    
        88.94       88.41       87.85       87.27       86.66       86.04       85.42       84.80       84.18       83.58    
        82.98       82.40       81.83       81.29       80.77       80.27       79.79       79.35       78.92       78.51    
        78.12       77.75       77.38       77.02       76.67       76.32       75.97       75.61       75.25       74.88    
        74.50       74.10       73.68       73.24       72.77       72.27       71.74       71.18       70.60       70.00    
  33  -1000.0       91.27       91.20       91.08       90.89       90.64       90.34       89.99       89.60       89.17    
        88.70       88.21       87.68       87.13       86.56       85.97       85.37       84.78       84.19       83.61    
        83.04       82.48       81.93       81.40       80.89       80.39       79.92       79.47       79.03       78.62    
        78.21       77.82       77.44       77.07       76.70       76.33       75.97       75.60       75.22       74.83    
        74.44       74.03       73.60       73.15       72.68       72.19       71.67       71.13       70.57       70.00    
  34  -1000.0       90.86       90.80       90.68       90.51       90.28       90.01       89.68       89.32       88.92    
        88.48       88.01       87.52       87.00       86.45       85.89       85.32       84.76       84.19       83.63    
        83.08       82.54       82.01       81.49       80.98       80.49       80.02       79.57       79.13       78.71    
        78.29       77.89       77.50       77.11       76.73       76.35       75.97       75.58       75.19       74.79    
        74.39       73.97       73.53       73.08       72.61       72.12       71.61       71.09       70.55       70.00    
  35  -1000.0       90.49       90.44       90.33       90.17       89.96       89.70       89.40       89.06       88.69    
        88.27       87.83       87.36       86.87       86.35       85.81       85.27       84.73       84.18       83.64    
        83.11       82.58       82.07       81.56       81.06       80.58       80.11       79.65       79.21       78.78    
        78.36       77.95       77.55       77.15       76.76       76.37       75.97       75.58       75.17       74.77    
        74.35       73.92       73.48       73.03       72.56       72.07       71.57       71.06       70.53       70.00    
  36  -1000.0       90.17       90.12       90.02       89.87       89.67       89.43       89.15       88.83       88.47    
        88.08       87.66       87.22       86.74       86.25       85.73       85.21       84.69       84.17       83.65    
        83.13       82.62       82.11       81.61       81.13       80.65       80.18       79.73       79.28       78.85    
        78.43       78.01       77.60       77.19       76.79       76.38       75.98       75.57       75.16       74.74    
        74.32       73.89       73.44       72.98       72.52       72.03       71.54       71.03       70.52       70.00    
  37  -1000.0       89.88       89.83       89.74       89.59       89.41       89.18       88.91       88.61       88.27    
        87.90       87.51       87.08       86.63       86.15       85.66       85.16       84.65       84.15       83.64    
        83.14       82.64       82.15       81.66       81.18       80.71       80.24       79.79       79.34       78.91    
        78.48       78.06       77.64       77.22       76.81       76.40       75.99       75.57       75.15       74.73    
        74.30       73.86       73.41       72.95       72.48       72.00       71.52       71.02       70.51       70.00    
  38  -1000.0       89.63       89.58       89.49       89.35       89.17       88.96       88.70       88.41       88.09    
        87.74       87.36       86.95       86.52       86.06       85.58       85.10       84.61       84.12       83.63    
        83.14       82.66       82.17       81.69       81.22       80.75       80.29       79.84       79.39       78.96    
        78.52       78.10       77.67       77.25       76.83       76.41       75.99       75.57       75.15       74.72    
        74.28       73.84       73.39       72.93       72.46       71.98       71.50       71.00       70.50       70.00    
  39  -1000.0       89.41       89.36       89.27       89.13       88.96       88.75       88.51       88.23       87.93    
        87.59       87.22       86.83       86.41       85.97       85.51       85.04       84.57       84.10       83.62    
        83.14       82.66       82.19       81.72       81.25       80.79       80.33       79.88       79.44       79.00    
        78.56       78.13       77.70       77.28       76.85       76.43       76.00       75.57       75.14       74.71    
        74.27       73.82       73.37       72.91       72.44       71.97       71.48       70.99       70.50       70.00    
  40  -1000.0       89.23       89.17       89.08       88.94       88.77       88.57       88.34       88.07       87.77    
        87.45       87.10       86.72       86.32       85.89       85.45       84.99       84.53       84.07       83.60    
        83.13       82.67       82.20       81.74       81.28       80.82       80.37       79.92       79.47       79.03    
        78.59       78.16       77.73       77.30       76.87       76.44       76.01       75.58       75.14       74.70    
        74.26       73.81       73.36       72.89       72.43       71.95       71.47       70.99       70.50       70.00    
  41  -1000.0       89.08       89.01       88.91       88.77       88.60       88.41       88.18       87.92       87.64    
        87.32       86.98       86.62       86.23       85.82       85.38       84.94       84.49       84.04       83.58    
        83.13       82.67       82.21       81.75       81.30       80.84       80.39       79.94       79.50       79.06    
        78.62       78.18       77.75       77.32       76.88       76.45       76.02       75.58       75.14       74.70    
        74.25       73.80       73.35       72.88       72.42       71.94       71.47       70.98       70.49       70.00    
  42  -1000.0       88.92       88.87       88.76       88.62       88.45       88.26       88.04       87.79       87.51    
        87.21       86.88       86.53       86.15       85.75       85.32       84.89       84.46       84.01       83.57    
        83.12       82.67       82.21       81.76       81.31       80.86       80.41       79.97       79.52       79.08    
        78.64       78.20       77.77       77.33       76.90       76.46       76.02       75.58       75.14       74.70    
        74.25       73.80       73.34       72.88       72.41       71.94       71.46       70.98       70.49       70.00    
  43  -1000.0       88.79       88.73       88.62       88.48       88.31       88.12       87.91       87.66       87.40    
        87.11       86.79       86.44       86.08       85.69       85.27       84.85       84.42       83.99       83.55    
        83.11       82.66       82.21       81.77       81.32       80.87       80.43       79.98       79.54       79.10    
        78.66       78.22       77.78       77.35       76.91       76.47       76.03       75.59       75.14       74.70    
        74.25       73.79       73.33       72.87       72.40       71.93       71.45       70.97       70.49       70.00    
  44  -1000.0       88.68       88.61       88.50       88.35       88.18       88.00       87.79       87.55       87.29    
        87.01       86.70       86.37       86.01       85.63       85.23       84.81       84.39       83.96       83.53    
        83.09       82.66       82.21       81.77       81.33       80.88       80.44       80.00       79.56       79.12    
        78.67       78.24       77.80       77.36       76.92       76.48       76.03       75.59       75.14       74.70    
        74.24       73.79       73.33       72.87       72.40       71.93       71.45       70.97       70.49       70.00    
  45  -1000.0       88.61       88.52       88.39       88.24       88.06       87.88       87.68       87.45       87.20    
        86.93       86.63       86.31       85.96       85.58       85.19       84.78       84.36       83.94       83.52    
        83.08       82.65       82.21       81.77       81.33       80.89       80.45       80.01       79.57       79.13    
        78.69       78.25       77.81       77.36       76.92       76.48       76.04       75.59       75.15       74.70    
        74.24       73.79       73.33       72.86       72.40       71.92       71.45       70.97       70.49       70.00    
  46  -1000.0     -1000.0       88.42       88.29       88.14       87.97       87.77       87.57       87.36       87.12    
        86.86       86.57       86.25       85.91       85.54       85.15       84.75       84.34       83.93       83.50    
        83.08       82.65       82.21       81.77       81.34       80.90       80.46       80.02       79.58       79.14    
        78.69       78.25       77.81       77.37       76.93       76.49       76.04       75.60       75.15       74.70    
        74.24       73.79       73.32       72.86       72.39       71.92       71.45       70.97       70.49       70.00    
  47  -1000.0     -1000.0     -1000.0       88.18       88.04       87.88       87.70       87.48       87.27       87.05    
        86.79       86.52       86.21       85.87       85.51       85.13       84.73       84.32       83.91       83.49    
        83.07       82.64       82.21       81.77       81.34       80.90       80.46       80.02       79.58       79.14    
        78.70       78.26       77.82       77.38       76.93       76.49       76.04       75.60       75.15       74.70    
        74.24       73.78       73.32       72.86       72.39       71.92       71.45       70.97       70.49       70.00    
  48  -1000.0     -1000.0     -1000.0     -1000.0       87.93       87.79       87.63       87.43       87.20       86.98    
        86.74       86.48       86.18       85.85       85.49       85.11       84.72       84.31       83.90       83.49    
        83.06       82.64       82.21       81.77       81.34       80.90       80.46       80.03       79.59       79.15    
        78.70       78.26       77.82       77.38       76.94       76.49       76.05       75.60       75.15       74.70    
        74.24       73.78       73.32       72.86       72.39       71.92       71.45       70.97       70.49       70.00    
  49  -1000.0     -1000.0     -1000.0     -1000.0     -1000.0       87.71       87.59       87.41       87.18       86.92    
        86.71       86.45       86.16       85.83       85.48       85.10       84.71       84.31       83.90       83.48    
        83.06       82.64       82.21       81.77       81.34       80.90       80.47       80.03       79.59       79.15    
        78.71       78.27       77.82       77.38       76.94       76.49       76.05       75.60       75.15       74.70    
        74.24       73.78       73.32       72.86       72.39       71.92       71.44       70.97       70.49       70.00    
  50  -1000.0     -1000.0     -1000.0     -1000.0     -1000.0     -1000.0     -1000.0     -1000.0     -1000.0     -1000.0    
      -1000.0     -1000.0     -1000.0     -1000.0     -1000.0     -1000.0     -1000.0     -1000.0     -1000.0     -1000.0    
      -1000.0     -1000.0     -1000.0     -1000.0     -1000.0     -1000.0     -1000.0     -1000.0     -1000.0     -1000.0    
      -1000.0     -1000.0     -1000.0     -1000.0     -1000.0     -1000.0     -1000.0     -1000.0     -1000.0     -1000.0    
      -1000.0     -1000.0     -1000.0     -1000.0     -1000.0     -1000.0     -1000.0     -1000.0     -1000.0       70.00    
1
              HEAD IN LAYER   2 AT END OF TIME STEP   1 IN STRESS PERIOD    1
  ---------------------------------------------------------------------------

            1           2           3           4           5           6           7           8           9          10
           11          12          13          14          15          16          17          18          19          20
           21          22          23          24          25          26          27          28          29          30
           31          32          33          34          35          36          37          38          39          40
           41          42          43          44          45          46          47          48          49          50
 ........................................................................................................................
   1  -1000.0     -1000.0     -1000.0     -1000.0     -1000.0     -1000.0     -1000.0     -1000.0     -1000.0     -1000.0    
      -1000.0     -1000.0     -1000.0     -1000.0     -1000.0     -1000.0     -1000.0     -1000.0     -1000.0     -1000.0    
      -1000.0     -1000.0     -1000.0     -1000.0     -1000.0     -1000.0     -1000.0     -1000.0     -1000.0     -1000.0    
      -1000.0     -1000.0     -1000.0     -1000.0     -1000.0     -1000.0     -1000.0     -1000.0     -1000.0     -1000.0    
      -1000.0     -1000.0     -1000.0     -1000.0     -1000.0     -1000.0     -1000.0     -1000.0     -1000.0       70.00    
   2  -1000.0     -1000.0     -1000.0     -1000.0     -1000.0     -1000.0     -1000.0       87.63       87.40       87.13    
        86.92       86.65       86.34       86.01       85.64       85.25       84.85       84.44       84.02       83.59    
        83.16       82.72       82.28       81.84       81.40       80.96       80.51       80.07       79.62       79.18    
        78.73       78.29       77.84       77.39       76.95       76.50       76.05       75.61       75.15       74.70    
        74.25       73.79       73.33       72.86       72.39       71.92       71.45       70.97       70.49       70.00    
   3  -1000.0     -1000.0     -1000.0     -1000.0     -1000.0     -1000.0       87.87       87.66       87.42       87.19    
        86.95       86.67       86.36       86.02       85.65       85.26       84.86       84.44       84.02       83.59    
        83.16       82.72       82.28       81.84       81.40       80.95       80.51       80.06       79.62       79.17    
        78.73       78.28       77.84       77.39       76.95       76.50       76.05       75.60       75.15       74.70    
        74.25       73.79       73.33       72.86       72.39       71.92       71.45       70.97       70.49       70.00    
   4  -1000.0     -1000.0     -1000.0     -1000.0     -1000.0       88.13       87.94       87.71       87.50       87.26    
        87.00       86.71       86.39       86.05       85.68       85.28       84.87       84.45       84.03       83.60    
        83.16       82.73       82.28       81.84       81.40       80.95       80.50       80.06       79.61       79.17    
        78.72       78.28       77.83       77.39       76.94       76.50       76.05       75.60       75.15       74.70    
        74.25       73.79       73.33       72.86       72.39       71.92       71.45       70.97       70.49       70.00    
   5  -1000.0     -1000.0     -1000.0     -1000.0       88.40       88.22       88.01       87.81       87.59       87.34    
        87.06       86.77       86.44       86.09       85.71       85.30       84.89       84.47       84.04       83.61    
        83.17       82.73       82.28       81.84       81.39       80.94       80.50       80.05       79.60       79.16    
        78.71       78.27       77.83       77.38       76.94       76.49       76.05       75.60       75.15       74.70    
        74.25       73.79       73.33       72.86       72.40       71.92       71.45       70.97       70.49       70.00    
   6  -1000.0     -1000.0     -1000.0       88.67       88.51       88.32       88.13       87.92       87.68       87.42    
        87.14       86.83       86.50       86.13       85.75       85.34       84.92       84.49       84.06       83.62    
        83.18       82.73       82.28       81.83       81.39       80.94       80.49       80.04       79.59       79.15    
        78.70       78.26       77.82       77.37       76.93       76.49       76.04       75.60       75.15       74.70    
        74.25       73.79       73.33       72.87       72.40       71.93       71.45       70.97       70.49       70.00    
   7  -1000.0     -1000.0       88.90       88.78       88.63       88.45       88.26       88.04       87.79       87.52    
        87.23       86.91       86.56       86.19       85.80       85.38       84.95       84.52       84.08       83.63    
        83.18       82.73       82.28       81.83       81.38       80.93       80.47       80.03       79.58       79.13    
        78.69       78.25       77.80       77.36       76.92       76.48       76.04       75.59       75.15       74.70    
        74.25       73.79       73.33       72.87       72.40       71.93       71.45       70.97       70.49       70.00    
   8  -1000.0       89.09       89.03       88.91       88.76       88.59       88.39       88.16       87.91       87.63    
        87.33       86.99       86.64       86.26       85.85       85.42       84.99       84.54       84.10       83.64    
        83.19       82.73       82.28       81.82       81.36       80.91       80.46       80.01       79.56       79.11    
        78.67       78.23       77.79       77.35       76.91       76.47       76.03       75.59       75.14       74.70    
        74.25       73.79       73.34       72.87       72.41       71.93       71.46       70.98       70.49       70.00    
   9  -1000.0       89.23       89.18       89.06       88.91       88.74       88.53       88.30       88.04       87.75    
        87.43       87.09       86.72       86.33       85.91       85.48       85.03       84.58       84.12       83.66    
        83.20       82.73       82.27       81.81       81.35       80.89       80.44       79.98       79.54       79.09    
        78.65       78.21       77.77       77.33       76.90       76.46       76.02       75.58       75.14       74.70    
        74.25       73.80       73.34       72.88       72.41       71.94       71.46       70.98       70.49       70.00    
  10  -1000.0       89.40       89.33       89.22       89.08       88.90       88.69       88.45       88.18       87.88    
        87.55       87.20       86.82       86.41       85.98       85.53       85.07       84.61       84.14       83.67    
        83.20       82.73       82.26       81.79       81.33       80.87       80.41       79.96       79.51       79.06    
        78.62       78.18       77.75       77.31       76.88       76.45       76.01       75.58       75.14       74.70    
        74.26       73.81       73.35       72.89       72.42       71.95       71.47       70.98       70.49       70.00    
  11  -1000.0       89.56       89.50       89.40       89.26       89.08       88.87       88.62       88.34       88.03    
        87.69       87.32       86.92       86.50       86.06       85.59       85.12       84.65       84.17       83.68    
        83.20       82.72       82.24       81.77       81.30       80.83       80.37       79.92       79.47       79.03    
        78.59       78.15       77.72       77.29       76.86       76.43       76.00       75.57       75.14       74.70    
        74.26       73.81       73.36       72.90       72.44       71.96       71.48       70.99       70.50       70.00    
  12  -1000.0       89.76       89.71       89.61       89.47       89.28       89.06       88.80       88.51       88.19    
        87.83       87.45       87.04       86.60       86.14       85.66       85.17       84.68       84.19       83.69    
        83.20       82.71       82.22       81.74       81.27       80.80       80.33       79.88       79.43       78.98    
        78.55       78.12       77.69       77.26       76.84       76.42       75.99       75.57       75.14       74.71    
        74.27       73.83       73.38       72.92       72.45       71.98       71.49       71.00       70.50       70.00    
  13  -1000.0       90.00       89.95       89.85       89.70       89.51       89.28       89.01       88.70       88.36    
        87.99       87.59       87.16       86.70       86.23       85.73       85.22       84.72       84.21       83.70    
        83.19       82.69       82.19       81.70       81.22       80.75       80.28       79.82       79.38       78.93    
        78.50       78.07       77.65       77.23       76.81       76.40       75.98       75.56       75.14       74.71    
        74.28       73.84       73.40       72.94       72.47       72.00       71.51       71.01       70.51       70.00    
  14  -1000.0       90.27       90.22       90.12       89.96       89.76       89.52       89.23       88.91       88.55    
        88.16       87.74       87.29       86.81       86.32       85.80       85.27       84.75       84.22       83.70    
        83.18       82.66       82.16       81.66       81.17       80.69       80.22       79.76       79.31       78.88    
        78.45       78.02       77.61       77.20       76.79       76.38       75.97       75.56       75.14       74.73    
        74.30       73.87       73.42       72.97       72.50       72.02       71.53       71.03       70.52       70.00    
  15  -1000.0       90.59       90.53       90.42       90.26       90.05       89.79       89.48       89.14       88.76    
        88.35       87.90       87.43       86.93       86.41       85.87       85.32       84.78       84.23       83.69    
        83.15       82.63       82.11       81.60       81.10       80.61       80.14       79.68       79.24       78.81    
        78.38       77.97       77.56       77.15       76.75       76.35       75.95       75.55       75.15       74.74    
        74.32       73.90       73.46       73.01       72.54       72.06       71.56       71.05       70.53       70.00    
  16  -1000.0       90.94       90.88       90.76       90.59       90.36       90.08       89.76       89.39       88.99    
        88.55       88.08       87.58       87.05       86.51       85.94       85.37       84.80       84.24       83.67    
        83.12       82.58       82.04       81.52       81.02       80.53       80.05       79.60       79.15       78.73    
        78.31       77.90       77.50       77.11       76.72       76.33       75.94       75.55       75.16       74.76    
        74.35       73.94       73.51       73.06       72.59       72.11       71.60       71.08       70.55       70.00    
  17  -1000.0       91.34       91.28       91.15       90.96       90.71       90.41       90.06       89.66       89.23    
        88.76       88.26       87.73       87.18       86.61       86.01       85.42       84.82       84.23       83.65    
        83.07       82.51       81.96       81.43       80.91       80.42       79.94       79.49       79.05       78.63    
        78.23       77.83       77.44       77.06       76.68       76.31       75.93       75.55       75.17       74.78    
        74.39       73.99       73.57       73.12       72.66       72.17       71.66       71.12       70.57       70.00    
  18  -1000.0       91.79       91.72       91.58       91.37       91.09       90.77       90.39       89.96       89.49    
        88.99       88.46       87.90       87.31       86.71       86.08       85.46       84.84       84.22       83.61    
        83.01       82.43       81.86       81.31       80.79       80.29       79.82       79.37       78.94       78.53    
        78.13       77.75       77.37       77.01       76.64       76.28       75.92       75.55       75.18       74.82    
        74.44       74.05       73.64       73.21       72.75       72.26       71.73       71.18       70.60       70.00    
  19  -1000.0       92.30       92.22       92.06       91.82       91.52       91.16       90.74       90.28       89.78    
        89.24       88.67       88.07       87.45       86.81       86.15       85.49       84.84       84.19       83.55    
        82.93       82.32       81.73       81.18       80.64       80.14       79.67       79.22       78.80       78.41    
        78.02       77.66       77.30       76.95       76.60       76.25       75.90       75.55       75.20       74.86    
        74.50       74.14       73.74       73.32       72.87       72.37       71.83       71.25       70.64       70.00    
  20  -1000.0       92.87       92.78       92.59       92.33       91.99       91.59       91.13       90.62       90.08    
        89.50       88.88       88.25       87.59       86.91       86.21       85.52       84.83       84.15       83.47    
        82.82       82.19       81.58       81.00       80.46       79.96       79.49       79.05       78.65       78.27    
        77.91       77.56       77.22       76.89       76.56       76.23       75.90       75.55       75.21       74.90    
        74.58       74.24       73.87       73.47       73.02       72.52       71.97       71.36       70.70       70.00    
  21  -1000.0       93.52       93.41       93.20       92.89       92.51       92.06       91.55       90.99       90.40    
        89.77       89.11       88.43       87.72       87.00       86.27       85.53       84.80       84.08       83.38    
        82.69       82.02       81.39       80.79       80.24       79.73       79.27       78.85       78.47       78.11    
        77.77       77.45       77.14       76.83       76.53       76.21       75.89       75.55       75.20       74.95    
        74.68       74.38       74.04       73.65       73.22       72.72       72.16       71.51       70.78       70.00    
  22  -1000.0       94.26       94.13       93.88       93.52       93.08       92.56       91.99       91.38       90.73    
        90.05       89.34       88.61       87.86       87.09       86.31       85.54       84.77       84.01       83.26    
        82.53       81.83       81.16       80.54       79.97       79.47       79.02       78.62       78.27       77.94    
        77.63       77.34       77.05       76.78       76.50       76.21       75.91       75.56       75.10       75.02    
        74.82       74.55       74.25       73.89       73.48       73.00       72.42       71.74       70.92       70.00    
  23  -1000.0       95.11       94.95       94.64       94.21       93.70       93.11       92.47       91.79       91.08    
        90.34       89.57       88.79       87.99       87.18       86.36       85.54       84.72       83.91       83.12    
        82.34       81.59       80.88       80.22       79.64       79.15       78.73       78.36       78.04       77.75    
        77.47       77.22       76.97       76.73       76.48       76.23       75.97       75.70       75.41       75.22    
        75.02       74.78       74.50       74.19       73.81       73.36       72.80       72.09       71.15       70.00    
  24  -1000.0       96.10       95.90       95.51       94.98       94.37       93.70       92.98       92.22       91.44    
        90.64       89.82       88.98       88.13       87.27       86.40       85.53       84.67       83.81       82.96    
        82.13       81.32       80.55       79.84       79.22       78.76       78.38       78.06       77.79       77.54    
        77.32       77.10       76.89       76.68       76.48       76.27       76.06       75.85       75.63       75.44    
        75.25       75.05       74.81       74.54       74.23       73.84       73.34       72.64       71.59       70.00    
  25  -1000.0       97.27       97.03       96.49       95.83       95.09       94.31       93.50       92.66       91.81    
        90.94       90.06       89.17       88.26       87.35       86.43       85.52       84.60       83.69       82.79    
        81.90       81.02       80.16       79.35       78.65       78.29       77.98       77.73       77.52       77.33    
        77.15       76.98       76.81       76.65       76.49       76.33       76.17       76.00       75.84       75.68    
        75.52       75.35       75.16       74.96       74.72       74.44       74.07       73.54       72.56       70.00    
  26  -1000.0       96.09       95.89       95.50       94.97       94.36       93.69       92.97       92.21       91.43    
        90.63       89.81       88.97       88.12       87.26       86.39       85.52       84.66       83.81       82.96    
        82.13       81.32       80.55       79.83       79.22       78.75       78.38       78.06       77.79       77.54    
        77.31       77.10       76.90       76.70       76.50       76.30       76.11       75.91       75.71       75.51    
        75.30       75.07       74.83       74.55       74.23       73.84       73.34       72.64       71.59       70.00    
  27  -1000.0       95.09       94.93       94.62       94.19       93.68       93.09       92.45       91.77       91.06    
        90.32       89.55       88.77       87.98       87.17       86.34       85.52       84.71       83.91       83.11    
        82.34       81.59       80.88       80.22       79.64       79.14       78.72       78.36       78.04       77.74    
        77.48       77.22       76.98       76.75       76.52       76.29       76.06       75.83       75.60       75.35    
        75.10       74.83       74.54       74.21       73.83       73.37       72.81       72.09       71.15       70.00    
  28  -1000.0       94.23       94.10       93.85       93.49       93.05       92.53       91.97       91.35       90.70    
        90.02       89.31       88.58       87.83       87.07       86.29       85.52       84.75       83.99       83.25    
        82.52       81.82       81.15       80.53       79.96       79.46       79.01       78.62       78.26       77.93    
        77.63       77.34       77.07       76.80       76.54       76.28       76.02       75.76       75.50       75.22    
        74.93       74.63       74.29       73.92       73.50       73.01       72.43       71.74       70.92       70.00    
  29  -1000.0       93.48       93.37       93.16       92.86       92.47       92.02       91.51       90.96       90.36    
        89.73       89.08       88.39       87.69       86.97       86.24       85.51       84.78       84.07       83.36    
        82.68       82.01       81.38       80.79       80.23       79.72       79.26       78.84       78.46       78.11    
        77.77       77.46       77.15       76.86       76.57       76.29       76.00       75.71       75.42       75.11    
        74.79       74.45       74.09       73.69       73.24       72.74       72.17       71.51       70.78       70.00    
  30  -1000.0       92.82       92.73       92.55       92.28       91.95       91.54       91.09       90.58       90.04    
        89.46       88.85       88.21       87.55       86.87       86.18       85.49       84.80       84.12       83.45    
        82.80       82.17       81.57       80.99       80.45       79.94       79.47       79.04       78.64       78.26    
        77.90       77.56       77.24       76.92       76.61       76.30       75.98       75.67       75.35       75.02    
        74.68       74.31       73.92       73.50       73.04       72.54       71.98       71.36       70.70       70.00    
  31  -1000.0       92.24       92.16       92.00       91.77       91.47       91.11       90.69       90.23       89.73    
        89.19       88.62       88.03       87.41       86.77       86.11       85.46       84.81       84.16       83.52    
        82.90       82.30       81.71       81.16       80.62       80.12       79.65       79.20       78.79       78.39    
        78.02       77.66       77.31       76.97       76.64       76.31       75.97       75.64       75.30       74.94    
        74.58       74.19       73.79       73.35       72.89       72.38       71.84       71.26       70.64       70.00    
  32  -1000.0       91.73       91.66       91.51       91.30       91.03       90.71       90.33       89.90       89.44    
        88.94       88.41       87.85       87.27       86.66       86.04       85.42       84.80       84.18       83.58    
        82.98       82.40       81.83       81.29       80.77       80.27       79.79       79.35       78.92       78.51    
        78.12       77.75       77.38       77.02       76.67       76.32       75.97       75.61       75.25       74.88    
        74.50       74.10       73.68       73.24       72.77       72.27       71.74       71.18       70.60       70.00    
  33  -1000.0       91.27       91.20       91.08       90.89       90.64       90.34       89.99       89.60       89.17    
        88.70       88.21       87.68       87.13       86.56       85.97       85.37       84.78       84.19       83.61    
        83.04       82.48       81.93       81.40       80.89       80.39       79.92       79.47       79.03       78.62    
        78.21       77.82       77.44       77.07       76.70       76.33       75.97       75.60       75.22       74.83    
        74.44       74.03       73.60       73.15       72.68       72.18       71.67       71.13       70.57       70.00    
  34  -1000.0       90.86       90.80       90.68       90.51       90.28       90.01       89.68       89.32       88.92    
        88.48       88.01       87.52       87.00       86.45       85.89       85.32       84.76       84.19       83.63    
        83.08       82.54       82.01       81.49       80.98       80.49       80.02       79.57       79.13       78.71    
        78.29       77.89       77.50       77.11       76.73       76.35       75.97       75.58       75.19       74.79    
        74.39       73.97       73.53       73.08       72.61       72.12       71.61       71.09       70.55       70.00    
  35  -1000.0       90.49       90.44       90.33       90.17       89.96       89.70       89.40       89.06       88.69    
        88.27       87.83       87.36       86.87       86.35       85.81       85.27       84.73       84.18       83.64    
        83.11       82.58       82.07       81.56       81.06       80.58       80.11       79.65       79.21       78.78    
        78.36       77.95       77.55       77.15       76.76       76.37       75.97       75.58       75.17       74.77    
        74.35       73.92       73.48       73.03       72.56       72.07       71.57       71.06       70.53       70.00    
  36  -1000.0       90.17       90.12       90.02       89.87       89.67       89.43       89.15       88.83       88.47    
        88.08       87.66       87.22       86.74       86.25       85.73       85.21       84.69       84.17       83.65    
        83.13       82.62       82.11       81.61       81.13       80.65       80.18       79.73       79.28       78.85    
        78.43       78.01       77.60       77.19       76.79       76.38       75.98       75.57       75.16       74.74    
        74.32       73.89       73.44       72.98       72.52       72.03       71.54       71.03       70.52       70.00    
  37  -1000.0       89.88       89.83       89.74       89.59       89.41       89.18       88.91       88.61       88.27    
        87.90       87.51       87.08       86.63       86.15       85.66       85.16       84.65       84.15       83.64    
        83.14       82.64       82.15       81.66       81.18       80.71       80.24       79.79       79.34       78.91    
        78.48       78.06       77.64       77.22       76.81       76.40       75.99       75.57       75.15       74.73    
        74.30       73.86       73.41       72.95       72.48       72.00       71.52       71.02       70.51       70.00    
  38  -1000.0       89.63       89.58       89.49       89.35       89.17       88.96       88.70       88.41       88.09    
        87.74       87.36       86.95       86.52       86.06       85.58       85.10       84.61       84.12       83.63    
        83.14       82.66       82.17       81.69       81.22       80.75       80.29       79.84       79.39       78.96    
        78.52       78.10       77.67       77.25       76.83       76.41       75.99       75.57       75.15       74.72    
        74.28       73.84       73.39       72.93       72.46       71.98       71.50       71.00       70.50       70.00    
  39  -1000.0       89.41       89.36       89.27       89.13       88.96       88.75       88.51       88.23       87.93    
        87.59       87.22       86.83       86.41       85.97       85.51       85.04       84.57       84.10       83.62    
        83.14       82.66       82.19       81.72       81.25       80.79       80.33       79.88       79.44       79.00    
        78.56       78.13       77.70       77.28       76.85       76.43       76.00       75.57       75.14       74.71    
        74.27       73.82       73.37       72.91       72.44       71.97       71.48       70.99       70.50       70.00    
  40  -1000.0       89.23       89.17       89.08       88.94       88.77       88.57       88.34       88.07       87.77    
        87.45       87.10       86.72       86.32       85.89       85.45       84.99       84.53       84.07       83.60    
        83.13       82.67       82.20       81.74       81.28       80.82       80.37       79.92       79.47       79.03    
        78.59       78.16       77.73       77.30       76.87       76.44       76.01       75.58       75.14       74.70    
        74.26       73.81       73.36       72.89       72.43       71.95       71.47       70.99       70.50       70.00    
  41  -1000.0       89.08       89.01       88.91       88.77       88.60       88.41       88.18       87.92       87.64    
        87.32       86.98       86.62       86.23       85.82       85.38       84.94       84.49       84.04       83.58    
        83.13       82.67       82.21       81.75       81.30       80.84       80.39       79.94       79.50       79.06    
        78.62       78.18       77.75       77.32       76.88       76.45       76.02       75.58       75.14       74.70    
        74.25       73.80       73.35       72.88       72.42       71.94       71.47       70.98       70.49       70.00    
  42  -1000.0       88.92       88.87       88.76       88.62       88.45       88.26       88.04       87.79       87.51    
        87.21       86.88       86.53       86.15       85.75       85.32       84.89       84.46       84.01       83.57    
        83.12       82.67       82.21       81.76       81.31       80.86       80.41       79.97       79.52       79.08    
        78.64       78.20       77.77       77.33       76.90       76.46       76.02       75.58       75.14       74.70    
        74.25       73.80       73.34       72.88       72.41       71.94       71.46       70.98       70.49       70.00    
  43  -1000.0       88.79       88.73       88.62       88.48       88.31       88.12       87.91       87.66       87.40    
        87.11       86.79       86.44       86.08       85.69       85.27       84.85       84.42       83.99       83.55    
        83.11       82.66       82.21       81.77       81.32       80.87       80.43       79.98       79.54       79.10    
        78.66       78.22       77.78       77.35       76.91       76.47       76.03       75.59       75.14       74.70    
        74.25       73.79       73.33       72.87       72.40       71.93       71.45       70.97       70.49       70.00    
  44  -1000.0     -1000.0       88.61       88.50       88.35       88.18       88.00       87.79       87.55       87.29    
        87.01       86.70       86.37       86.01       85.63       85.23       84.81       84.39       83.96       83.53    
        83.09       82.66       82.21       81.77       81.33       80.88       80.44       80.00       79.56       79.11    
        78.67       78.23       77.80       77.36       76.92       76.48       76.03       75.59       75.14       74.70    
        74.24       73.79       73.33       72.87       72.40       71.93       71.45       70.97       70.49       70.00    
  45  -1000.0     -1000.0     -1000.0       88.39       88.24       88.06       87.88       87.68       87.45       87.20    
        86.93       86.63       86.31       85.96       85.58       85.19       84.78       84.36       83.94       83.52    
        83.08       82.65       82.21       81.77       81.33       80.89       80.45       80.01       79.57       79.13    
        78.69       78.25       77.81       77.36       76.92       76.48       76.04       75.59       75.15       74.70    
        74.24       73.79       73.33       72.86       72.40       71.92       71.45       70.97       70.49       70.00    
  46  -1000.0     -1000.0     -1000.0     -1000.0       88.14       87.97       87.77       87.57       87.36       87.12    
        86.86       86.57       86.25       85.91       85.54       85.15       84.75       84.34       83.93       83.50    
        83.08       82.65       82.21       81.77       81.34       80.90       80.46       80.02       79.58       79.14    
        78.69       78.25       77.81       77.37       76.93       76.49       76.04       75.60       75.15       74.70    
        74.24       73.79       73.32       72.86       72.39       71.92       71.45       70.97       70.49       70.00    
  47  -1000.0     -1000.0     -1000.0     -1000.0     -1000.0       87.88       87.70       87.48       87.27       87.04    
        86.79       86.52       86.21       85.87       85.51       85.13       84.73       84.32       83.91       83.49    
        83.07       82.64       82.21       81.77       81.34       80.90       80.46       80.02       79.58       79.14    
        78.70       78.26       77.82       77.38       76.93       76.49       76.04       75.60       75.15       74.70    
        74.24       73.78       73.32       72.86       72.39       71.92       71.45       70.97       70.49       70.00    
  48  -1000.0     -1000.0     -1000.0     -1000.0     -1000.0     -1000.0       87.63       87.43       87.20       86.98    
        86.74       86.48       86.18       85.85       85.49       85.11       84.72       84.31       83.90       83.49    
        83.06       82.64       82.21       81.77       81.34       80.90       80.46       80.03       79.59       79.15    
        78.70       78.26       77.82       77.38       76.94       76.49       76.05       75.60       75.15       74.70    
        74.24       73.78       73.32       72.86       72.39       71.92       71.45       70.97       70.49       70.00    
  49  -1000.0     -1000.0     -1000.0     -1000.0     -1000.0     -1000.0     -1000.0       87.41       87.18       86.92    
        86.71       86.45       86.16       85.83       85.48       85.10       84.71       84.31       83.90       83.48    
        83.06       82.64       82.21       81.77       81.34       80.90       80.47       80.03       79.59       79.15    
        78.71       78.27       77.82       77.38       76.94       76.49       76.05       75.60       75.15       74.70    
        74.24       73.78       73.32       72.86       72.39       71.92       71.44       70.97       70.49       70.00    
  50  -1000.0     -1000.0     -1000.0     -1000.0     -1000.0     -1000.0     -1000.0     -1000.0     -1000.0     -1000.0    
      -1000.0     -1000.0     -1000.0     -1000.0     -1000.0     -1000.0     -1000.0     -1000.0     -1000.0     -1000.0    
      -1000.0     -1000.0     -1000.0     -1000.0     -1000.0     -1000.0     -1000.0     -1000.0     -1000.0     -1000.0    
      -1000.0     -1000.0     -1000.0     -1000.0     -1000.0     -1000.0     -1000.0     -1000.0     -1000.0     -1000.0    
      -1000.0     -1000.0     -1000.0     -1000.0     -1000.0     -1000.0     -1000.0     -1000.0     -1000.0       70.00    
1
              HEAD IN LAYER   3 AT END OF TIME STEP   1 IN STRESS PERIOD    1
  ---------------------------------------------------------------------------

            1           2           3           4           5           6           7           8           9          10
           11          12          13          14          15          16          17          18          19          20
           21          22          23          24          25          26          27          28          29          30
           31          32          33          34          35          36          37          38          39          40
[...]
        82.34       81.59       80.88       80.22       79.64       79.15       78.73       78.36       78.04       77.75    
        77.47       77.22       76.97       76.73       76.48       76.23       75.97       75.70       75.41       75.22    
        75.02       74.78       74.50       74.19       73.81       73.36       72.80       72.09       71.15       70.00    
  24  -1000.0       96.10       95.90       95.51       94.98       94.37       93.70       92.98       92.22       91.44    
        90.64       89.82       88.98       88.13       87.27       86.40       85.53       84.67       83.81       82.96    
        82.13       81.32       80.55       79.84       79.22       78.76       78.38       78.07       77.79       77.54    
        77.32       77.10       76.89       76.68       76.48       76.27       76.06       75.85       75.63       75.44    
        75.25       75.05       74.81       74.54       74.23       73.84       73.34       72.64       71.59       70.00    
  25  -1000.0       97.27       97.03       96.49       95.82       95.09       94.31       93.50       92.66       91.81    
        90.94       90.06       89.17       88.26       87.35       86.43       85.52       84.60       83.69       82.79    
        81.90       81.02       80.17       79.36       78.67       78.30       77.99       77.74       77.53       77.34    
        77.16       76.98       76.82       76.65       76.49       76.33       76.16       76.00       75.84       75.68    
        75.51       75.34       75.15       74.95       74.71       74.42       74.06       73.52       72.52       70.00    
  26  -1000.0       96.09       95.89       95.50       94.97       94.36       93.69       92.97       92.21       91.43    
        90.63       89.81       88.97       88.12       87.26       86.39       85.52       84.66       83.81       82.96    
        82.13       81.32       80.55       79.83       79.22       78.75       78.38       78.06       77.79       77.54    
        77.32       77.10       76.90       76.70       76.50       76.30       76.11       75.91       75.71       75.51    
        75.30       75.07       74.83       74.55       74.23       73.84       73.34       72.64       71.59       70.00    
  27  -1000.0       95.09       94.93       94.62       94.19       93.68       93.09       92.45       91.77       91.06    
        90.32       89.55       88.77       87.98       87.17       86.34       85.52       84.71       83.91       83.11    
        82.34       81.59       80.88       80.22       79.64       79.14       78.72       78.36       78.04       77.74    
        77.48       77.22       76.98       76.75       76.52       76.29       76.06       75.83       75.60       75.35    
        75.10       74.83       74.54       74.21       73.83       73.37       72.81       72.09       71.15       70.00    
  28  -1000.0       94.23       94.10       93.85       93.49       93.05       92.53       91.97       91.35       90.70    
        90.02       89.31       88.58       87.83       87.07       86.29       85.52       84.75       83.99       83.25    
        82.52       81.82       81.15       80.53       79.96       79.46       79.01       78.62       78.26       77.93    
        77.63       77.34       77.07       76.80       76.54       76.28       76.03       75.76       75.50       75.22    
        74.93       74.63       74.29       73.92       73.50       73.01       72.43       71.74       70.92       70.00    
  29  -1000.0       93.48       93.37       93.16       92.86       92.47       92.02       91.51       90.96       90.36    
        89.73       89.08       88.39       87.69       86.97       86.24       85.51       84.78       84.07       83.36    
        82.68       82.01       81.38       80.79       80.23       79.72       79.26       78.84       78.46       78.11    
        77.77       77.46       77.15       76.86       76.57       76.29       76.00       75.71       75.42       75.11    
        74.79       74.45       74.09       73.69       73.24       72.74       72.16       71.51       70.78       70.00    
  30  -1000.0       92.82       92.73       92.55       92.28       91.95       91.54       91.09       90.58       90.04    
        89.46       88.85       88.21       87.55       86.87       86.18       85.49       84.80       84.12       83.45    
        82.80       82.17       81.57       80.99       80.45       79.94       79.47       79.04       78.64       78.26    
        77.90       77.56       77.24       76.92       76.61       76.30       75.98       75.67       75.35       75.02    
        74.68       74.31       73.92       73.50       73.04       72.54       71.98       71.36       70.70       70.00    
  31  -1000.0       92.24       92.16       92.00       91.77       91.47       91.11       90.69       90.23       89.73    
        89.19       88.62       88.03       87.41       86.77       86.11       85.46       84.81       84.16       83.52    
        82.90       82.30       81.71       81.16       80.62       80.12       79.65       79.20       78.79       78.39    
        78.02       77.66       77.31       76.97       76.64       76.31       75.97       75.64       75.30       74.94    
        74.58       74.19       73.79       73.35       72.89       72.38       71.84       71.26       70.64       70.00    
  32  -1000.0       91.73       91.66       91.51       91.30       91.03       90.71       90.33       89.90       89.44    
        88.94       88.41       87.85       87.27       86.66       86.04       85.42       84.80       84.18       83.58    
        82.98       82.40       81.83       81.29       80.77       80.27       79.79       79.35       78.92       78.51    
        78.12       77.75       77.38       77.02       76.67       76.32       75.97       75.61       75.25       74.88    
        74.50       74.10       73.68       73.24       72.77       72.27       71.74       71.18       70.60       70.00    
  33  -1000.0       91.27       91.20       91.08       90.89       90.64       90.34       89.99       89.60       89.17    
        88.70       88.21       87.68       87.13       86.56       85.97       85.37       84.78       84.19       83.61    
        83.04       82.48       81.93       81.40       80.89       80.39       79.92       79.47       79.03       78.62    
        78.21       77.82       77.44       77.07       76.70       76.33       75.97       75.60       75.22       74.83    
        74.44       74.03       73.60       73.15       72.68       72.18       71.67       71.13       70.57       70.00    
  34  -1000.0       90.86       90.80       90.68       90.51       90.28       90.01       89.68       89.32       88.92    
        88.48       88.01       87.52       87.00       86.45       85.89       85.32       84.76       84.19       83.63    
        83.08       82.54       82.01       81.49       80.98       80.49       80.02       79.57       79.13       78.71    
        78.29       77.89       77.50       77.11       76.73       76.35       75.97       75.58       75.19       74.79    
        74.39       73.97       73.53       73.08       72.61       72.12       71.61       71.09       70.55       70.00    
  35  -1000.0       90.49       90.44       90.33       90.17       89.96       89.70       89.40       89.06       88.69    
        88.27       87.83       87.36       86.87       86.35       85.81       85.27       84.73       84.18       83.64    
        83.11       82.58       82.07       81.56       81.06       80.58       80.11       79.65       79.21       78.78    
        78.36       77.95       77.55       77.15       76.76       76.37       75.97       75.58       75.17       74.77    
        74.35       73.92       73.48       73.03       72.56       72.07       71.57       71.06       70.53       70.00    
  36  -1000.0       90.17       90.12       90.02       89.87       89.67       89.43       89.15       88.83       88.47    
        88.08       87.66       87.22       86.74       86.25       85.73       85.21       84.69       84.17       83.65    
        83.13       82.62       82.11       81.61       81.13       80.65       80.18       79.73       79.28       78.85    
        78.43       78.01       77.60       77.19       76.79       76.38       75.98       75.57       75.16       74.74    
        74.32       73.89       73.44       72.98       72.52       72.03       71.54       71.03       70.52       70.00    
  37  -1000.0       89.88       89.83       89.74       89.59       89.41       89.18       88.91       88.61       88.27    
        87.90       87.51       87.08       86.63       86.15       85.66       85.16       84.65       84.15       83.64    
        83.14       82.64       82.15       81.66       81.18       80.71       80.24       79.79       79.34       78.91    
        78.48       78.06       77.64       77.22       76.81       76.40       75.99       75.57       75.15       74.73    
        74.30       73.86       73.41       72.95       72.48       72.00       71.52       71.02       70.51       70.00    
  38  -1000.0       89.63       89.58       89.49       89.35       89.17       88.96       88.70       88.41       88.09    
        87.74       87.36       86.95       86.52       86.06       85.58       85.10       84.61       84.12       83.63    
        83.14       82.66       82.17       81.69       81.22       80.75       80.29       79.84       79.39       78.96    
        78.52       78.10       77.67       77.25       76.83       76.41       75.99       75.57       75.15       74.72    
        74.28       73.84       73.39       72.93       72.46       71.98       71.50       71.00       70.50       70.00    
  39  -1000.0       89.41       89.36       89.27       89.13       88.96       88.75       88.51       88.23       87.93    
        87.59       87.22       86.83       86.41       85.97       85.51       85.04       84.57       84.10       83.62    
        83.14       82.66       82.19       81.72       81.25       80.79       80.33       79.88       79.44       79.00    
        78.56       78.13       77.70       77.28       76.85       76.43       76.00       75.57       75.14       74.71    
        74.27       73.82       73.37       72.91       72.44       71.97       71.48       70.99       70.50       70.00    
  40  -1000.0       89.23       89.17       89.08       88.94       88.77       88.57       88.34       88.07       87.77    
        87.45       87.10       86.72       86.32       85.89       85.45       84.99       84.53       84.07       83.60    
        83.13       82.67       82.20       81.74       81.28       80.82       80.37       79.92       79.47       79.03    
        78.59       78.16       77.73       77.30       76.87       76.44       76.01       75.58       75.14       74.70    
        74.26       73.81       73.36       72.89       72.43       71.95       71.47       70.99       70.50       70.00    
  41  -1000.0       89.08       89.01       88.91       88.77       88.60       88.41       88.18       87.92       87.64    
        87.32       86.98       86.62       86.23       85.82       85.38       84.94       84.49       84.04       83.58    
        83.13       82.67       82.21       81.75       81.30       80.84       80.39       79.94       79.50       79.06    
        78.62       78.18       77.75       77.32       76.88       76.45       76.02       75.58       75.14       74.70    
        74.25       73.80       73.35       72.88       72.42       71.94       71.47       70.98       70.49       70.00    
  42  -1000.0     -1000.0       88.87       88.76       88.62       88.45       88.26       88.04       87.79       87.51    
        87.21       86.88       86.53       86.15       85.75       85.32       84.89       84.46       84.01       83.57    
        83.12       82.67       82.21       81.76       81.31       80.86       80.41       79.97       79.52       79.08    
        78.64       78.20       77.77       77.33       76.90       76.46       76.02       75.58       75.14       74.70    
        74.25       73.80       73.34       72.88       72.41       71.94       71.46       70.98       70.49       70.00    
  43  -1000.0     -1000.0     -1000.0       88.62       88.48       88.31       88.12       87.91       87.66       87.40    
        87.11       86.79       86.44       86.08       85.69       85.27       84.85       84.42       83.99       83.55    
        83.11       82.66       82.21       81.77       81.32       80.87       80.43       79.98       79.54       79.10    
        78.66       78.22       77.78       77.35       76.91       76.47       76.03       75.59       75.14       74.70    
        74.25       73.79       73.33       72.87       72.40       71.93       71.45       70.97       70.49       70.00    
  44  -1000.0     -1000.0     -1000.0     -1000.0       88.35       88.18       88.00       87.79       87.55       87.29    
        87.01       86.70       86.37       86.01       85.63       85.23       84.81       84.39       83.96       83.53    
        83.09       82.66       82.21       81.77       81.33       80.88       80.44       80.00       79.56       79.11    
        78.67       78.23       77.80       77.36       76.92       76.48       76.03       75.59       75.14       74.70    
        74.24       73.79       73.33       72.87       72.40       71.93       71.45       70.97       70.49       70.00    
  45  -1000.0     -1000.0     -1000.0     -1000.0     -1000.0       88.06       87.88       87.68       87.45       87.20    
        86.93       86.63       86.31       85.96       85.58       85.19       84.78       84.36       83.94       83.52    
        83.08       82.65       82.21       81.77       81.33       80.89       80.45       80.01       79.57       79.13    
        78.69       78.25       77.81       77.36       76.92       76.48       76.04       75.59       75.15       74.70    
        74.24       73.79       73.33       72.86       72.40       71.92       71.45       70.97       70.49       70.00    
  46  -1000.0     -1000.0     -1000.0     -1000.0     -1000.0     -1000.0       87.77       87.57       87.36       87.12    
        86.86       86.57       86.25       85.91       85.54       85.15       84.75       84.34       83.93       83.50    
        83.08       82.65       82.21       81.77       81.34       80.90       80.46       80.02       79.58       79.13    
        78.69       78.25       77.81       77.37       76.93       76.49       76.04       75.60       75.15       74.70    
        74.24       73.79       73.32       72.86       72.39       71.92       71.45       70.97       70.49       70.00    
  47  -1000.0     -1000.0     -1000.0     -1000.0     -1000.0     -1000.0     -1000.0       87.48       87.27       87.04    
        86.79       86.52       86.21       85.87       85.51       85.13       84.73       84.32       83.91       83.49    
        83.07       82.64       82.21       81.77       81.34       80.90       80.46       80.02       79.58       79.14    
        78.70       78.26       77.82       77.38       76.93       76.49       76.04       75.60       75.15       74.70    
        74.24       73.78       73.32       72.86       72.39       71.92       71.45       70.97       70.49       70.00    
  48  -1000.0     -1000.0     -1000.0     -1000.0     -1000.0     -1000.0     -1000.0     -1000.0       87.20       86.98    
        86.74       86.48       86.18       85.85       85.49       85.11       84.72       84.31       83.90       83.49    
        83.06       82.64       82.21       81.77       81.34       80.90       80.46       80.03       79.59       79.15    
        78.70       78.26       77.82       77.38       76.94       76.49       76.05       75.60       75.15       74.70    
        74.24       73.78       73.32       72.86       72.39       71.92       71.45       70.97       70.49       70.00    
  49  -1000.0     -1000.0     -1000.0     -1000.0     -1000.0     -1000.0     -1000.0     -1000.0     -1000.0       86.92    
        86.71       86.45       86.16       85.83       85.48       85.10       84.71       84.31       83.90       83.48    
        83.06       82.64       82.21       81.77       81.34       80.90       80.47       80.03       79.59       79.15    
        78.71       78.27       77.82       77.38       76.94       76.49       76.05       75.60       75.15       74.70    
        74.24       73.78       73.32       72.86       72.39       71.92       71.44       70.97       70.49       70.00    
  50  -1000.0     -1000.0     -1000.0     -1000.0     -1000.0     -1000.0     -1000.0     -1000.0     -1000.0     -1000.0    
      -1000.0     -1000.0     -1000.0     -1000.0     -1000.0     -1000.0     -1000.0     -1000.0     -1000.0     -1000.0    
      -1000.0     -1000.0     -1000.0     -1000.0     -1000.0     -1000.0     -1000.0     -1000.0     -1000.0     -1000.0    
      -1000.0     -1000.0     -1000.0     -1000.0     -1000.0     -1000.0     -1000.0     -1000.0     -1000.0     -1000.0    
      -1000.0     -1000.0     -1000.0     -1000.0     -1000.0     -1000.0     -1000.0     -1000.0     -1000.0       70.00    

 HEAD WILL BE SAVED ON UNIT   51 AT END OF TIME STEP    1, STRESS PERIOD    1

 DRAWDOWN WILL BE SAVED ON UNIT   52 AT END OF TIME STEP    1, STRESS PERIOD    1
1
  VOLUMETRIC BUDGET FOR ENTIRE MODEL AT END OF TIME STEP    1, STRESS PERIOD   1
  ------------------------------------------------------------------------------

     CUMULATIVE VOLUMES      L**3       RATES FOR THIS TIME STEP      L**3/T
     ------------------                 ------------------------

           IN:                                      IN:
           ---                                      ---
             STORAGE =           0.0000               STORAGE =           0.0000
       CONSTANT HEAD =           0.0000         CONSTANT HEAD =           0.0000
               WELLS =         375.0000                 WELLS =         375.0000
       RIVER LEAKAGE =       63929.3750         RIVER LEAKAGE =       63929.3750
                  ET =           0.0000                    ET =           0.0000
            RECHARGE =       19560.0000              RECHARGE =       19560.0000

            TOTAL IN =       83864.3750              TOTAL IN =       83864.3750

          OUT:                                     OUT:
          ----                                     ----
             STORAGE =           0.0000               STORAGE =           0.0000
       CONSTANT HEAD =       56281.4102         CONSTANT HEAD =       56281.4102
               WELLS =        1500.0000                 WELLS =        1500.0000
       RIVER LEAKAGE =       18834.9121         RIVER LEAKAGE =       18834.9121
                  ET =        7247.8755                    ET =        7247.8755
            RECHARGE =           0.0000              RECHARGE =           0.0000

           TOTAL OUT =       83864.1953             TOTAL OUT =       83864.1953

            IN - OUT =           0.1797              IN - OUT =           0.1797

 PERCENT DISCREPANCY =           0.00     PERCENT DISCREPANCY =           0.00






         TIME SUMMARY AT END OF TIME STEP    1 IN STRESS PERIOD    1
                    SECONDS     MINUTES      HOURS       DAYS        YEARS
                    -----------------------------------------------------------
   TIME STEP LENGTH  86400.      1440.0      24.000      1.0000     2.73785E-03
 STRESS PERIOD TIME  86400.      1440.0      24.000      1.0000     2.73785E-03
         TOTAL TIME  86400.      1440.0      24.000      1.0000     2.73785E-03
1

 Run end date and time (yyyy/mm/dd hh:mm:ss): 2026/02/25  4:40:39
 Elapsed run time: 13.771 Seconds

